
 Fire Dynamics Simulator

 Compilation Date : Thu, 20 Dec 2012
 Version          : FDS 6, Release Candidate 3 Serial

 OpenMP Disabled

 SVN Revision No. : 14299

 Job TITLE        : PCb2700
 Job ID string    : PCb2700


 Grid Dimensions, Mesh     1

   Cells in the X Direction            20
   Cells in the Y Direction            20
   Cells in the Z Direction           102


 Physical Dimensions, Mesh     1

   Length (m)                       1.000
   Width  (m)                       1.000
   Height (m)                       5.100
   Initial Time Step (s)            0.035


 Miscellaneous Parameters

   Simulation Start Time (s)          0.0
   Simulation End Time (s)          600.0
   LES Calculation
   Deardorff Model
   Turbulent Prandtl Number          0.50
   Turbulent Schmidt Number          0.50
   Ambient Temperature (C)          20.00


 Mass Fraction Transformation Matrix to Convert Species Mixtures (Columns) to Primitive Species (Rows)

                         AIR       WOOD      PRODUCTS  WATER VA
   WOOD                  0.000000  1.000000  0.000000  0.000000
   NITROGEN              0.763017  0.000000  0.648220  0.000000
   OXYGEN                0.231163  0.000000  0.000000  0.000000
   CARBON DIOXIDE        0.000592  0.000000  0.248093  0.000000
   CARBON MONOXIDE       0.000000  0.000000  0.000000  0.000000
   WATER VAPOR           0.005228  0.000000  0.100678  1.000000
   SOOT                  0.000000  0.000000  0.003009  0.000000


 Primitive Species Information

   WOOD                          
   Gas Species
   Molecular Weight (g/mol)            87.08411
   Ambient Density (kg/m^3)            3.620
   Enthalpy of Formation (J/kg)     not specified

   NITROGEN                      
   Gas Species
   Molecular Weight (g/mol)            28.01340
   Ambient Density (kg/m^3)            1.165
   Enthalpy of Formation (J/kg)        0.00E+00

   OXYGEN                        
   Gas Species
   Molecular Weight (g/mol)            31.99880
   Ambient Density (kg/m^3)            1.330
   Enthalpy of Formation (J/kg)        0.00E+00

   CARBON DIOXIDE                
   Gas Species
   Molecular Weight (g/mol)            44.00950
   Ambient Density (kg/m^3)            1.830
   Enthalpy of Formation (J/kg)       -8.94E+06

   CARBON MONOXIDE               
   Gas Species
   Molecular Weight (g/mol)            28.01010
   Ambient Density (kg/m^3)            1.164
   Enthalpy of Formation (J/kg)       -3.95E+06

   WATER VAPOR                   
   Gas Species
   Molecular Weight (g/mol)            18.01528
   Ambient Density (kg/m^3)            0.749
   Enthalpy of Formation (J/kg)       -1.34E+07

   SOOT                          
   Gas Species
   Molecular Weight (g/mol)            10.91042
   Ambient Density (kg/m^3)            0.454
   Enthalpy of Formation (J/kg)        0.00E+00


 Tracked (Lumped) Species Information

   AIR                           
   Background Species
   Molecular Weight (g/mol)            28.76428
   Ambient Density (kg/m^3)            1.196
   Initial Mass Fraction               1.000
   Enthalpy of Formation (J/kg)       -7.55E+04

   Sub Species                    Mass Fraction     Mole Fraction
   NITROGEN                       7.630170E-01      7.834692E-01
   OXYGEN                         2.311631E-01      2.077966E-01
   CARBON DIOXIDE                 5.918893E-04      3.868544E-04
   WATER VAPOR                    5.228041E-03      8.347405E-03
 
   Viscosity (kg/m/s)   Ambient (293 K):  1.79E-05
                                  500 K:  2.61E-05
                                 1000 K:  4.12E-05
                                 1500 K:  5.36E-05
   Therm. Cond. (W/m/K) Ambient (293 K):  3.62E-02
                                  500 K:  5.41E-02
                                 1000 K:  9.44E-02
                                 1500 K:  1.31E-01
   Spec. Heat (J/kg/K)  Ambient (293 K):  1.01E+03
                                  500 K:  1.04E+03
                                 1000 K:  1.15E+03
                                 1500 K:  1.22E+03
   Diff. Coeff. (m^2/s) Ambient (293 K):  1.99E-05
                                  500 K:  4.96E-05
                                 1000 K:  1.58E-04
                                 1500 K:  3.09E-04

   WOOD                          
   Molecular Weight (g/mol)            87.08411
   Ambient Density (kg/m^3)            3.620
   Initial Mass Fraction               0.000
   Enthalpy of Formation (J/kg)       -5.36E+06

   Sub Species                    Mass Fraction     Mole Fraction
   WOOD                           1.000000E+00      1.000000E+00
 
   Viscosity (kg/m/s)   Ambient (293 K):  3.14E-05
                                  500 K:  4.57E-05
                                 1000 K:  7.19E-05
                                 1500 K:  9.35E-05
   Therm. Cond. (W/m/K) Ambient (293 K):  2.10E-02
                                  500 K:  3.05E-02
                                 1000 K:  4.80E-02
                                 1500 K:  6.25E-02
   Spec. Heat (J/kg/K)  Ambient (293 K):  3.34E+02
                                  500 K:  3.34E+02
                                 1000 K:  3.34E+02
                                 1500 K:  3.34E+02
   Diff. Coeff. (m^2/s) Ambient (293 K):  1.63E-05
                                  500 K:  4.07E-05
                                 1000 K:  1.29E-04
                                 1500 K:  2.54E-04

   PRODUCTS                      
   Molecular Weight (g/mol)            28.86738
   Ambient Density (kg/m^3)            1.200
   Initial Mass Fraction               0.000
   Enthalpy of Formation (J/kg)       -3.57E+06

   Sub Species                    Mass Fraction     Mole Fraction
   NITROGEN                       6.482196E-01      6.679804E-01
   CARBON DIOXIDE                 2.480929E-01      1.627329E-01
   CARBON MONOXIDE                0.000000E+00      0.000000E+00
   WATER VAPOR                    1.006784E-01      1.613253E-01
   SOOT                           3.009037E-03      7.961468E-03
 
   Viscosity (kg/m/s)   Ambient (293 K):  1.58E-05
                                  500 K:  2.36E-05
                                 1000 K:  3.87E-05
                                 1500 K:  5.13E-05
   Therm. Cond. (W/m/K) Ambient (293 K):  3.46E-02
                                  500 K:  5.47E-02
                                 1000 K:  1.04E-01
                                 1500 K:  1.52E-01
   Spec. Heat (J/kg/K)  Ambient (293 K):  1.07E+03
                                  500 K:  1.14E+03
                                 1000 K:  1.30E+03
                                 1500 K:  1.40E+03
   Diff. Coeff. (m^2/s) Ambient (293 K):  1.88E-05
                                  500 K:  4.76E-05
                                 1000 K:  1.53E-04
                                 1500 K:  3.01E-04

   WATER VAPOR                   
   Molecular Weight (g/mol)            18.01528
   Ambient Density (kg/m^3)            0.749
   Initial Mass Fraction               0.000
   Enthalpy of Formation (J/kg)       -1.34E+07

   Sub Species                    Mass Fraction     Mole Fraction
   WATER VAPOR                    1.000000E+00      1.000000E+00
 
   Viscosity (kg/m/s)   Ambient (293 K):  1.05E-05
                                  500 K:  1.77E-05
                                 1000 K:  3.58E-05
                                 1500 K:  5.21E-05
   Therm. Cond. (W/m/K) Ambient (293 K):  3.92E-02
                                  500 K:  6.91E-02
                                 1000 K:  1.65E-01
                                 1500 K:  2.72E-01
   Spec. Heat (J/kg/K)  Ambient (293 K):  1.86E+03
                                  500 K:  1.95E+03
                                 1000 K:  2.30E+03
                                 1500 K:  2.61E+03
   Diff. Coeff. (m^2/s) Ambient (293 K):  2.10E-05
                                  500 K:  5.78E-05
                                 1000 K:  1.98E-04
                                 1500 K:  3.95E-04


 Gas Phase Reaction Information

   Ritchie, et al., 5th IAFSS, C_3.4 H_6.2 O_2.5, dHc = 15MW/kg                                        

   WOOD                          

   Eddy Dissipation Concept Reaction
   ODE Solver:  EXPLICIT EULER                
   Extinction Model:  EXTINCTION 2                  
   Critical Flame Temperature (K):    1600.2

   Tracked Species
   Species ID                     Stoich. Coeff.
   AIR                              -17.095267
   WOOD                              -1.000000
   PRODUCTS                          20.050911

   Detailed Species
   Species ID                     Stoich. Coeff.
   WOOD                             -1.0000
   NITROGEN                          0.0000
   OXYGEN                           -3.5523
   CARBON DIOXIDE                    3.2563
   WATER VAPOR                       3.0920
   SOOT                              0.1596

   Species ID                     Rate Exponent

   Arrhenius Constants
   Pre-exponential:    1.000000E+16
   Activation Energy:  0.000000E+00

   Fuel                           Heat of Combustion (kJ/kg)
   WOOD                           17936.00000


 Material Information

   1 CELLULOSE                     
     Emissivity                      0.940
     Density (kg/m3)                 735.8
     Specific Heat (kJ/kg/K)          1.24
     Conductivity (W/m/K)           0.0891
     Reaction  1
        Residue: CHAR, Material Index:  3, Yield:  0.234
        Gaseous Yields:
        WOOD                          :     0.77
        PRODUCTS                      :     0.00
        WATER VAPOR                   :     0.00
        A (1/s)    :  2.16E+08
        E (kJ/kmol):  9.69E+04
        H_R (kJ/kg):  4.18E+02
        N_S        :     1.00

   2 WATER                         
     Emissivity                      0.900
     Density (kg/m3)                 997.0
     Specific Heat (kJ/kg/K)          4.18
     Conductivity (W/m/K)           0.6018
     Reaction  1
        Gaseous Yields:
        WOOD                          :     0.00
        PRODUCTS                      :     0.00
        WATER VAPOR                   :     1.00
        A (1/s)    :  5.83E+08
        E (kJ/kmol):  7.87E+04
        H_R (kJ/kg):  2.26E+03
        N_S        :     1.00

   3 CHAR                          
     Emissivity                      0.950
     Density (kg/m3)                  46.3
     Specific Heat (kJ/kg/K)          0.70
     Conductivity (W/m/K)           0.0946


 Surface Conditions

   0 INERT

   1 CONE
     Material List
          1  CELLULOSE                     
          2  WATER                         
          3  CHAR                          
     Layer  1
        Thickness   (m):  0.00900
        Density (kg/m3):   759.65
        CELLULOSE, Mass fraction:    0.88
        WATER, Mass fraction:    0.12
     Total surface density     3.418 kg/m2
     Solid Phase Node, Layer, Coordinates(m):
                    0      1       0.0000000
                    1      1       0.0003103
                    2      1       0.0006207
                    3      1       0.0009310
                    4      1       0.0012414
                    5      1       0.0015517
                    6      1       0.0018621
                    7      1       0.0021724
                    8      1       0.0024828
                    9      1       0.0027931
                   10      1       0.0031034
                   11      1       0.0034138
                   12      1       0.0037241
                   13      1       0.0040345
                   14      1       0.0043448
                   15      1       0.0046552
                   16      1       0.0049655
                   17      1       0.0052759
                   18      1       0.0055862
                   19      1       0.0058966
                   20      1       0.0062069
                   21      1       0.0065172
                   22      1       0.0068276
                   23      1       0.0071379
                   24      1       0.0074483
                   25      1       0.0077586
                   26      1       0.0080690
                   27      1       0.0083793
                   28      1       0.0086897
                   29      1       0.0090000
     Assumed cylindrical symmetry
     Convection length scale (m)  2.60E-02

   2 HOT (DEFAULT)
     Wall or Vent Temperature (C)  2800.0

   3 OPEN
     Passive Vent to Atmosphere

   4 MIRROR
     Symmetry Plane

   5 INTERPOLATED

   6 PERIODIC

   7 HVAC

   8 MASSLESS PARTICLE

   9 DROPLET

  10 VEGETATION

  11 EVACUATION_OUTFLOW
     Normal Velocity (m/s)          0.000


 Device Properties

   1 rod shape
     Smokeview ID                TUBE


 Device Coordinates

     1 Coords:     0.50     0.50     0.05, Make: null, ID: Qr0.05, Quantity: RADIATIVE HEAT FLUX, Particle Class: cone particle
     2 Coords:     0.50     0.50     0.05, Make: null, ID: Qc0.05, Quantity: CONVECTIVE HEAT FLUX, Particle Class: cone particle
     3 Coords:     0.50     0.50     0.05, Make: null, ID: Tsurf0.05, Quantity: WALL TEMPERATURE, Particle Class: cone particle
     4 Coords:     0.50     0.50     0.05, Make: null, ID: Tseed0.05, Quantity: INSIDE WALL TEMPERATURE, Particle Class: cone particle
     5 Coords:     0.50     0.50     0.10, Make: null, ID: Qr0.1, Quantity: RADIATIVE HEAT FLUX, Particle Class: cone particle
     6 Coords:     0.50     0.50     0.10, Make: null, ID: Qc0.1, Quantity: CONVECTIVE HEAT FLUX, Particle Class: cone particle
     7 Coords:     0.50     0.50     0.10, Make: null, ID: Tsurf0.1, Quantity: WALL TEMPERATURE, Particle Class: cone particle
     8 Coords:     0.50     0.50     0.10, Make: null, ID: Tseed0.1, Quantity: INSIDE WALL TEMPERATURE, Particle Class: cone particle
     9 Coords:     0.50     0.50     0.15, Make: null, ID: Qr0.15, Quantity: RADIATIVE HEAT FLUX, Particle Class: cone particle
    10 Coords:     0.50     0.50     0.15, Make: null, ID: Qc0.15, Quantity: CONVECTIVE HEAT FLUX, Particle Class: cone particle
    11 Coords:     0.50     0.50     0.15, Make: null, ID: Tsurf0.15, Quantity: WALL TEMPERATURE, Particle Class: cone particle
    12 Coords:     0.50     0.50     0.15, Make: null, ID: Tseed0.15, Quantity: INSIDE WALL TEMPERATURE, Particle Class: cone particle
    13 Coords:     0.50     0.50     0.20, Make: null, ID: Qr0.2, Quantity: RADIATIVE HEAT FLUX, Particle Class: cone particle
    14 Coords:     0.50     0.50     0.20, Make: null, ID: Qc0.2, Quantity: CONVECTIVE HEAT FLUX, Particle Class: cone particle
    15 Coords:     0.50     0.50     0.20, Make: null, ID: Tsurf0.2, Quantity: WALL TEMPERATURE, Particle Class: cone particle
    16 Coords:     0.50     0.50     0.20, Make: null, ID: Tseed0.2, Quantity: INSIDE WALL TEMPERATURE, Particle Class: cone particle
    17 Coords:     0.50     0.50     0.25, Make: null, ID: Qr0.25, Quantity: RADIATIVE HEAT FLUX, Particle Class: cone particle
    18 Coords:     0.50     0.50     0.25, Make: null, ID: Qc0.25, Quantity: CONVECTIVE HEAT FLUX, Particle Class: cone particle
    19 Coords:     0.50     0.50     0.25, Make: null, ID: Tsurf0.25, Quantity: WALL TEMPERATURE, Particle Class: cone particle
    20 Coords:     0.50     0.50     0.25, Make: null, ID: Tseed0.25, Quantity: INSIDE WALL TEMPERATURE, Particle Class: cone particle
    21 Coords:     0.50     0.50     0.30, Make: null, ID: Qr0.3, Quantity: RADIATIVE HEAT FLUX, Particle Class: cone particle
    22 Coords:     0.50     0.50     0.30, Make: null, ID: Qc0.3, Quantity: CONVECTIVE HEAT FLUX, Particle Class: cone particle
    23 Coords:     0.50     0.50     0.30, Make: null, ID: Tsurf0.3, Quantity: WALL TEMPERATURE, Particle Class: cone particle
    24 Coords:     0.50     0.50     0.30, Make: null, ID: Tseed0.3, Quantity: INSIDE WALL TEMPERATURE, Particle Class: cone particle
    25 Coords:     0.50     0.50     0.35, Make: null, ID: Qr0.35, Quantity: RADIATIVE HEAT FLUX, Particle Class: cone particle
    26 Coords:     0.50     0.50     0.35, Make: null, ID: Qc0.35, Quantity: CONVECTIVE HEAT FLUX, Particle Class: cone particle
    27 Coords:     0.50     0.50     0.35, Make: null, ID: Tsurf0.35, Quantity: WALL TEMPERATURE, Particle Class: cone particle
    28 Coords:     0.50     0.50     0.35, Make: null, ID: Tseed0.35, Quantity: INSIDE WALL TEMPERATURE, Particle Class: cone particle
    29 Coords:     0.50     0.50     0.40, Make: null, ID: Qr0.4, Quantity: RADIATIVE HEAT FLUX, Particle Class: cone particle
    30 Coords:     0.50     0.50     0.40, Make: null, ID: Qc0.4, Quantity: CONVECTIVE HEAT FLUX, Particle Class: cone particle
    31 Coords:     0.50     0.50     0.40, Make: null, ID: Tsurf0.4, Quantity: WALL TEMPERATURE, Particle Class: cone particle
    32 Coords:     0.50     0.50     0.40, Make: null, ID: Tseed0.4, Quantity: INSIDE WALL TEMPERATURE, Particle Class: cone particle
    33 Coords:     0.50     0.50     0.45, Make: null, ID: Qr0.45, Quantity: RADIATIVE HEAT FLUX, Particle Class: cone particle
    34 Coords:     0.50     0.50     0.45, Make: null, ID: Qc0.45, Quantity: CONVECTIVE HEAT FLUX, Particle Class: cone particle
    35 Coords:     0.50     0.50     0.45, Make: null, ID: Tsurf0.45, Quantity: WALL TEMPERATURE, Particle Class: cone particle
    36 Coords:     0.50     0.50     0.45, Make: null, ID: Tseed0.45, Quantity: INSIDE WALL TEMPERATURE, Particle Class: cone particle
    37 Coords:     0.50     0.50     0.50, Make: null, ID: Qr0.5, Quantity: RADIATIVE HEAT FLUX, Particle Class: cone particle
    38 Coords:     0.50     0.50     0.50, Make: null, ID: Qc0.5, Quantity: CONVECTIVE HEAT FLUX, Particle Class: cone particle
    39 Coords:     0.50     0.50     0.50, Make: null, ID: Tsurf0.5, Quantity: WALL TEMPERATURE, Particle Class: cone particle
    40 Coords:     0.50     0.50     0.50, Make: null, ID: Tseed0.5, Quantity: INSIDE WALL TEMPERATURE, Particle Class: cone particle
    41 Coords:     0.50     0.50     0.55, Make: null, ID: Qr0.55, Quantity: RADIATIVE HEAT FLUX, Particle Class: cone particle
    42 Coords:     0.50     0.50     0.55, Make: null, ID: Qc0.55, Quantity: CONVECTIVE HEAT FLUX, Particle Class: cone particle
    43 Coords:     0.50     0.50     0.55, Make: null, ID: Tsurf0.55, Quantity: WALL TEMPERATURE, Particle Class: cone particle
    44 Coords:     0.50     0.50     0.55, Make: null, ID: Tseed0.55, Quantity: INSIDE WALL TEMPERATURE, Particle Class: cone particle
    45 Coords:     0.50     0.50     0.60, Make: null, ID: Qr0.6, Quantity: RADIATIVE HEAT FLUX, Particle Class: cone particle
    46 Coords:     0.50     0.50     0.60, Make: null, ID: Qc0.6, Quantity: CONVECTIVE HEAT FLUX, Particle Class: cone particle
    47 Coords:     0.50     0.50     0.60, Make: null, ID: Tsurf0.6, Quantity: WALL TEMPERATURE, Particle Class: cone particle
    48 Coords:     0.50     0.50     0.60, Make: null, ID: Tseed0.6, Quantity: INSIDE WALL TEMPERATURE, Particle Class: cone particle
    49 Coords:     0.50     0.50     0.65, Make: null, ID: Qr0.65, Quantity: RADIATIVE HEAT FLUX, Particle Class: cone particle
    50 Coords:     0.50     0.50     0.65, Make: null, ID: Qc0.65, Quantity: CONVECTIVE HEAT FLUX, Particle Class: cone particle
    51 Coords:     0.50     0.50     0.65, Make: null, ID: Tsurf0.65, Quantity: WALL TEMPERATURE, Particle Class: cone particle
    52 Coords:     0.50     0.50     0.65, Make: null, ID: Tseed0.65, Quantity: INSIDE WALL TEMPERATURE, Particle Class: cone particle
    53 Coords:     0.50     0.50     0.70, Make: null, ID: Qr0.7, Quantity: RADIATIVE HEAT FLUX, Particle Class: cone particle
    54 Coords:     0.50     0.50     0.70, Make: null, ID: Qc0.7, Quantity: CONVECTIVE HEAT FLUX, Particle Class: cone particle
    55 Coords:     0.50     0.50     0.70, Make: null, ID: Tsurf0.7, Quantity: WALL TEMPERATURE, Particle Class: cone particle
    56 Coords:     0.50     0.50     0.70, Make: null, ID: Tseed0.7, Quantity: INSIDE WALL TEMPERATURE, Particle Class: cone particle
    57 Coords:     0.50     0.50     0.75, Make: null, ID: Qr0.75, Quantity: RADIATIVE HEAT FLUX, Particle Class: cone particle
    58 Coords:     0.50     0.50     0.75, Make: null, ID: Qc0.75, Quantity: CONVECTIVE HEAT FLUX, Particle Class: cone particle
    59 Coords:     0.50     0.50     0.75, Make: null, ID: Tsurf0.75, Quantity: WALL TEMPERATURE, Particle Class: cone particle
    60 Coords:     0.50     0.50     0.75, Make: null, ID: Tseed0.75, Quantity: INSIDE WALL TEMPERATURE, Particle Class: cone particle
    61 Coords:     0.50     0.50     0.80, Make: null, ID: Qr0.8, Quantity: RADIATIVE HEAT FLUX, Particle Class: cone particle
    62 Coords:     0.50     0.50     0.80, Make: null, ID: Qc0.8, Quantity: CONVECTIVE HEAT FLUX, Particle Class: cone particle
    63 Coords:     0.50     0.50     0.80, Make: null, ID: Tsurf0.8, Quantity: WALL TEMPERATURE, Particle Class: cone particle
    64 Coords:     0.50     0.50     0.80, Make: null, ID: Tseed0.8, Quantity: INSIDE WALL TEMPERATURE, Particle Class: cone particle
    65 Coords:     0.50     0.50     0.85, Make: null, ID: Qr0.85, Quantity: RADIATIVE HEAT FLUX, Particle Class: cone particle
    66 Coords:     0.50     0.50     0.85, Make: null, ID: Qc0.85, Quantity: CONVECTIVE HEAT FLUX, Particle Class: cone particle
    67 Coords:     0.50     0.50     0.85, Make: null, ID: Tsurf0.85, Quantity: WALL TEMPERATURE, Particle Class: cone particle
    68 Coords:     0.50     0.50     0.85, Make: null, ID: Tseed0.85, Quantity: INSIDE WALL TEMPERATURE, Particle Class: cone particle
    69 Coords:     0.50     0.50     0.90, Make: null, ID: Qr0.9, Quantity: RADIATIVE HEAT FLUX, Particle Class: cone particle
    70 Coords:     0.50     0.50     0.90, Make: null, ID: Qc0.9, Quantity: CONVECTIVE HEAT FLUX, Particle Class: cone particle
    71 Coords:     0.50     0.50     0.90, Make: null, ID: Tsurf0.9, Quantity: WALL TEMPERATURE, Particle Class: cone particle
    72 Coords:     0.50     0.50     0.90, Make: null, ID: Tseed0.9, Quantity: INSIDE WALL TEMPERATURE, Particle Class: cone particle
    73 Coords:     0.50     0.50     0.95, Make: null, ID: Qr0.95, Quantity: RADIATIVE HEAT FLUX, Particle Class: cone particle
    74 Coords:     0.50     0.50     0.95, Make: null, ID: Qc0.95, Quantity: CONVECTIVE HEAT FLUX, Particle Class: cone particle
    75 Coords:     0.50     0.50     0.95, Make: null, ID: Tsurf0.95, Quantity: WALL TEMPERATURE, Particle Class: cone particle
    76 Coords:     0.50     0.50     0.95, Make: null, ID: Tseed0.95, Quantity: INSIDE WALL TEMPERATURE, Particle Class: cone particle
    77 Coords:     0.50     0.50     1.00, Make: null, ID: Qr1, Quantity: RADIATIVE HEAT FLUX, Particle Class: cone particle
    78 Coords:     0.50     0.50     1.00, Make: null, ID: Qc1, Quantity: CONVECTIVE HEAT FLUX, Particle Class: cone particle
    79 Coords:     0.50     0.50     1.00, Make: null, ID: Tsurf1, Quantity: WALL TEMPERATURE, Particle Class: cone particle
    80 Coords:     0.50     0.50     1.00, Make: null, ID: Tseed1, Quantity: INSIDE WALL TEMPERATURE, Particle Class: cone particle
    81 Coords:     0.50     0.50     1.05, Make: null, ID: Qr1.05, Quantity: RADIATIVE HEAT FLUX, Particle Class: cone particle
    82 Coords:     0.50     0.50     1.05, Make: null, ID: Qc1.05, Quantity: CONVECTIVE HEAT FLUX, Particle Class: cone particle
    83 Coords:     0.50     0.50     1.05, Make: null, ID: Tsurf1.05, Quantity: WALL TEMPERATURE, Particle Class: cone particle
    84 Coords:     0.50     0.50     1.05, Make: null, ID: Tseed1.05, Quantity: INSIDE WALL TEMPERATURE, Particle Class: cone particle
    85 Coords:     0.50     0.50     1.10, Make: null, ID: Qr1.1, Quantity: RADIATIVE HEAT FLUX, Particle Class: cone particle
    86 Coords:     0.50     0.50     1.10, Make: null, ID: Qc1.1, Quantity: CONVECTIVE HEAT FLUX, Particle Class: cone particle
    87 Coords:     0.50     0.50     1.10, Make: null, ID: Tsurf1.1, Quantity: WALL TEMPERATURE, Particle Class: cone particle
    88 Coords:     0.50     0.50     1.10, Make: null, ID: Tseed1.1, Quantity: INSIDE WALL TEMPERATURE, Particle Class: cone particle
    89 Coords:     0.50     0.50     1.15, Make: null, ID: Qr1.15, Quantity: RADIATIVE HEAT FLUX, Particle Class: cone particle
    90 Coords:     0.50     0.50     1.15, Make: null, ID: Qc1.15, Quantity: CONVECTIVE HEAT FLUX, Particle Class: cone particle
    91 Coords:     0.50     0.50     1.15, Make: null, ID: Tsurf1.15, Quantity: WALL TEMPERATURE, Particle Class: cone particle
    92 Coords:     0.50     0.50     1.15, Make: null, ID: Tseed1.15, Quantity: INSIDE WALL TEMPERATURE, Particle Class: cone particle
    93 Coords:     0.50     0.50     1.20, Make: null, ID: Qr1.2, Quantity: RADIATIVE HEAT FLUX, Particle Class: cone particle
    94 Coords:     0.50     0.50     1.20, Make: null, ID: Qc1.2, Quantity: CONVECTIVE HEAT FLUX, Particle Class: cone particle
    95 Coords:     0.50     0.50     1.20, Make: null, ID: Tsurf1.2, Quantity: WALL TEMPERATURE, Particle Class: cone particle
    96 Coords:     0.50     0.50     1.20, Make: null, ID: Tseed1.2, Quantity: INSIDE WALL TEMPERATURE, Particle Class: cone particle
    97 Coords:     0.50     0.50     1.25, Make: null, ID: Qr1.25, Quantity: RADIATIVE HEAT FLUX, Particle Class: cone particle
    98 Coords:     0.50     0.50     1.25, Make: null, ID: Qc1.25, Quantity: CONVECTIVE HEAT FLUX, Particle Class: cone particle
    99 Coords:     0.50     0.50     1.25, Make: null, ID: Tsurf1.25, Quantity: WALL TEMPERATURE, Particle Class: cone particle
   100 Coords:     0.50     0.50     1.25, Make: null, ID: Tseed1.25, Quantity: INSIDE WALL TEMPERATURE, Particle Class: cone particle
   101 Coords:     0.50     0.50     1.30, Make: null, ID: Qr1.3, Quantity: RADIATIVE HEAT FLUX, Particle Class: cone particle
   102 Coords:     0.50     0.50     1.30, Make: null, ID: Qc1.3, Quantity: CONVECTIVE HEAT FLUX, Particle Class: cone particle
   103 Coords:     0.50     0.50     1.30, Make: null, ID: Tsurf1.3, Quantity: WALL TEMPERATURE, Particle Class: cone particle
   104 Coords:     0.50     0.50     1.30, Make: null, ID: Tseed1.3, Quantity: INSIDE WALL TEMPERATURE, Particle Class: cone particle
   105 Coords:     0.50     0.50     1.35, Make: null, ID: Qr1.35, Quantity: RADIATIVE HEAT FLUX, Particle Class: cone particle
   106 Coords:     0.50     0.50     1.35, Make: null, ID: Qc1.35, Quantity: CONVECTIVE HEAT FLUX, Particle Class: cone particle
   107 Coords:     0.50     0.50     1.35, Make: null, ID: Tsurf1.35, Quantity: WALL TEMPERATURE, Particle Class: cone particle
   108 Coords:     0.50     0.50     1.35, Make: null, ID: Tseed1.35, Quantity: INSIDE WALL TEMPERATURE, Particle Class: cone particle
   109 Coords:     0.50     0.50     1.40, Make: null, ID: Qr1.4, Quantity: RADIATIVE HEAT FLUX, Particle Class: cone particle
   110 Coords:     0.50     0.50     1.40, Make: null, ID: Qc1.4, Quantity: CONVECTIVE HEAT FLUX, Particle Class: cone particle
   111 Coords:     0.50     0.50     1.40, Make: null, ID: Tsurf1.4, Quantity: WALL TEMPERATURE, Particle Class: cone particle
   112 Coords:     0.50     0.50     1.40, Make: null, ID: Tseed1.4, Quantity: INSIDE WALL TEMPERATURE, Particle Class: cone particle
   113 Coords:     0.50     0.50     1.45, Make: null, ID: Qr1.45, Quantity: RADIATIVE HEAT FLUX, Particle Class: cone particle
   114 Coords:     0.50     0.50     1.45, Make: null, ID: Qc1.45, Quantity: CONVECTIVE HEAT FLUX, Particle Class: cone particle
   115 Coords:     0.50     0.50     1.45, Make: null, ID: Tsurf1.45, Quantity: WALL TEMPERATURE, Particle Class: cone particle
   116 Coords:     0.50     0.50     1.45, Make: null, ID: Tseed1.45, Quantity: INSIDE WALL TEMPERATURE, Particle Class: cone particle
   117 Coords:     0.50     0.50     1.50, Make: null, ID: Qr1.5, Quantity: RADIATIVE HEAT FLUX, Particle Class: cone particle
   118 Coords:     0.50     0.50     1.50, Make: null, ID: Qc1.5, Quantity: CONVECTIVE HEAT FLUX, Particle Class: cone particle
   119 Coords:     0.50     0.50     1.50, Make: null, ID: Tsurf1.5, Quantity: WALL TEMPERATURE, Particle Class: cone particle
   120 Coords:     0.50     0.50     1.50, Make: null, ID: Tseed1.5, Quantity: INSIDE WALL TEMPERATURE, Particle Class: cone particle
   121 Coords:     0.50     0.50     1.55, Make: null, ID: Qr1.55, Quantity: RADIATIVE HEAT FLUX, Particle Class: cone particle
   122 Coords:     0.50     0.50     1.55, Make: null, ID: Qc1.55, Quantity: CONVECTIVE HEAT FLUX, Particle Class: cone particle
   123 Coords:     0.50     0.50     1.55, Make: null, ID: Tsurf1.55, Quantity: WALL TEMPERATURE, Particle Class: cone particle
   124 Coords:     0.50     0.50     1.55, Make: null, ID: Tseed1.55, Quantity: INSIDE WALL TEMPERATURE, Particle Class: cone particle
   125 Coords:     0.50     0.50     1.60, Make: null, ID: Qr1.6, Quantity: RADIATIVE HEAT FLUX, Particle Class: cone particle
   126 Coords:     0.50     0.50     1.60, Make: null, ID: Qc1.6, Quantity: CONVECTIVE HEAT FLUX, Particle Class: cone particle
   127 Coords:     0.50     0.50     1.60, Make: null, ID: Tsurf1.6, Quantity: WALL TEMPERATURE, Particle Class: cone particle
   128 Coords:     0.50     0.50     1.60, Make: null, ID: Tseed1.6, Quantity: INSIDE WALL TEMPERATURE, Particle Class: cone particle
   129 Coords:     0.50     0.50     1.65, Make: null, ID: Qr1.65, Quantity: RADIATIVE HEAT FLUX, Particle Class: cone particle
   130 Coords:     0.50     0.50     1.65, Make: null, ID: Qc1.65, Quantity: CONVECTIVE HEAT FLUX, Particle Class: cone particle
   131 Coords:     0.50     0.50     1.65, Make: null, ID: Tsurf1.65, Quantity: WALL TEMPERATURE, Particle Class: cone particle
   132 Coords:     0.50     0.50     1.65, Make: null, ID: Tseed1.65, Quantity: INSIDE WALL TEMPERATURE, Particle Class: cone particle
   133 Coords:     0.50     0.50     1.70, Make: null, ID: Qr1.7, Quantity: RADIATIVE HEAT FLUX, Particle Class: cone particle
   134 Coords:     0.50     0.50     1.70, Make: null, ID: Qc1.7, Quantity: CONVECTIVE HEAT FLUX, Particle Class: cone particle
   135 Coords:     0.50     0.50     1.70, Make: null, ID: Tsurf1.7, Quantity: WALL TEMPERATURE, Particle Class: cone particle
   136 Coords:     0.50     0.50     1.70, Make: null, ID: Tseed1.7, Quantity: INSIDE WALL TEMPERATURE, Particle Class: cone particle
   137 Coords:     0.50     0.50     1.75, Make: null, ID: Qr1.75, Quantity: RADIATIVE HEAT FLUX, Particle Class: cone particle
   138 Coords:     0.50     0.50     1.75, Make: null, ID: Qc1.75, Quantity: CONVECTIVE HEAT FLUX, Particle Class: cone particle
   139 Coords:     0.50     0.50     1.75, Make: null, ID: Tsurf1.75, Quantity: WALL TEMPERATURE, Particle Class: cone particle
   140 Coords:     0.50     0.50     1.75, Make: null, ID: Tseed1.75, Quantity: INSIDE WALL TEMPERATURE, Particle Class: cone particle
   141 Coords:     0.50     0.50     1.80, Make: null, ID: Qr1.8, Quantity: RADIATIVE HEAT FLUX, Particle Class: cone particle
   142 Coords:     0.50     0.50     1.80, Make: null, ID: Qc1.8, Quantity: CONVECTIVE HEAT FLUX, Particle Class: cone particle
   143 Coords:     0.50     0.50     1.80, Make: null, ID: Tsurf1.8, Quantity: WALL TEMPERATURE, Particle Class: cone particle
   144 Coords:     0.50     0.50     1.80, Make: null, ID: Tseed1.8, Quantity: INSIDE WALL TEMPERATURE, Particle Class: cone particle
   145 Coords:     0.50     0.50     1.85, Make: null, ID: Qr1.85, Quantity: RADIATIVE HEAT FLUX, Particle Class: cone particle
   146 Coords:     0.50     0.50     1.85, Make: null, ID: Qc1.85, Quantity: CONVECTIVE HEAT FLUX, Particle Class: cone particle
   147 Coords:     0.50     0.50     1.85, Make: null, ID: Tsurf1.85, Quantity: WALL TEMPERATURE, Particle Class: cone particle
   148 Coords:     0.50     0.50     1.85, Make: null, ID: Tseed1.85, Quantity: INSIDE WALL TEMPERATURE, Particle Class: cone particle
   149 Coords:     0.50     0.50     1.90, Make: null, ID: Qr1.9, Quantity: RADIATIVE HEAT FLUX, Particle Class: cone particle
   150 Coords:     0.50     0.50     1.90, Make: null, ID: Qc1.9, Quantity: CONVECTIVE HEAT FLUX, Particle Class: cone particle
   151 Coords:     0.50     0.50     1.90, Make: null, ID: Tsurf1.9, Quantity: WALL TEMPERATURE, Particle Class: cone particle
   152 Coords:     0.50     0.50     1.90, Make: null, ID: Tseed1.9, Quantity: INSIDE WALL TEMPERATURE, Particle Class: cone particle
   153 Coords:     0.50     0.50     1.95, Make: null, ID: Qr1.95, Quantity: RADIATIVE HEAT FLUX, Particle Class: cone particle
   154 Coords:     0.50     0.50     1.95, Make: null, ID: Qc1.95, Quantity: CONVECTIVE HEAT FLUX, Particle Class: cone particle
   155 Coords:     0.50     0.50     1.95, Make: null, ID: Tsurf1.95, Quantity: WALL TEMPERATURE, Particle Class: cone particle
   156 Coords:     0.50     0.50     1.95, Make: null, ID: Tseed1.95, Quantity: INSIDE WALL TEMPERATURE, Particle Class: cone particle
   157 Coords:     0.50     0.50     2.00, Make: null, ID: Qr2, Quantity: RADIATIVE HEAT FLUX, Particle Class: cone particle
   158 Coords:     0.50     0.50     2.00, Make: null, ID: Qc2, Quantity: CONVECTIVE HEAT FLUX, Particle Class: cone particle
   159 Coords:     0.50     0.50     2.00, Make: null, ID: Tsurf2, Quantity: WALL TEMPERATURE, Particle Class: cone particle
   160 Coords:     0.50     0.50     2.00, Make: null, ID: Tseed2, Quantity: INSIDE WALL TEMPERATURE, Particle Class: cone particle
   161 Coords:     0.50     0.50     2.05, Make: null, ID: Qr2.05, Quantity: RADIATIVE HEAT FLUX, Particle Class: cone particle
   162 Coords:     0.50     0.50     2.05, Make: null, ID: Qc2.05, Quantity: CONVECTIVE HEAT FLUX, Particle Class: cone particle
   163 Coords:     0.50     0.50     2.05, Make: null, ID: Tsurf2.05, Quantity: WALL TEMPERATURE, Particle Class: cone particle
   164 Coords:     0.50     0.50     2.05, Make: null, ID: Tseed2.05, Quantity: INSIDE WALL TEMPERATURE, Particle Class: cone particle
   165 Coords:     0.50     0.50     2.10, Make: null, ID: Qr2.1, Quantity: RADIATIVE HEAT FLUX, Particle Class: cone particle
   166 Coords:     0.50     0.50     2.10, Make: null, ID: Qc2.1, Quantity: CONVECTIVE HEAT FLUX, Particle Class: cone particle
   167 Coords:     0.50     0.50     2.10, Make: null, ID: Tsurf2.1, Quantity: WALL TEMPERATURE, Particle Class: cone particle
   168 Coords:     0.50     0.50     2.10, Make: null, ID: Tseed2.1, Quantity: INSIDE WALL TEMPERATURE, Particle Class: cone particle
   169 Coords:     0.50     0.50     2.15, Make: null, ID: Qr2.15, Quantity: RADIATIVE HEAT FLUX, Particle Class: cone particle
   170 Coords:     0.50     0.50     2.15, Make: null, ID: Qc2.15, Quantity: CONVECTIVE HEAT FLUX, Particle Class: cone particle
   171 Coords:     0.50     0.50     2.15, Make: null, ID: Tsurf2.15, Quantity: WALL TEMPERATURE, Particle Class: cone particle
   172 Coords:     0.50     0.50     2.15, Make: null, ID: Tseed2.15, Quantity: INSIDE WALL TEMPERATURE, Particle Class: cone particle
   173 Coords:     0.50     0.50     2.20, Make: null, ID: Qr2.2, Quantity: RADIATIVE HEAT FLUX, Particle Class: cone particle
   174 Coords:     0.50     0.50     2.20, Make: null, ID: Qc2.2, Quantity: CONVECTIVE HEAT FLUX, Particle Class: cone particle
   175 Coords:     0.50     0.50     2.20, Make: null, ID: Tsurf2.2, Quantity: WALL TEMPERATURE, Particle Class: cone particle
   176 Coords:     0.50     0.50     2.20, Make: null, ID: Tseed2.2, Quantity: INSIDE WALL TEMPERATURE, Particle Class: cone particle
   177 Coords:     0.50     0.50     2.25, Make: null, ID: Qr2.25, Quantity: RADIATIVE HEAT FLUX, Particle Class: cone particle
   178 Coords:     0.50     0.50     2.25, Make: null, ID: Qc2.25, Quantity: CONVECTIVE HEAT FLUX, Particle Class: cone particle
   179 Coords:     0.50     0.50     2.25, Make: null, ID: Tsurf2.25, Quantity: WALL TEMPERATURE, Particle Class: cone particle
   180 Coords:     0.50     0.50     2.25, Make: null, ID: Tseed2.25, Quantity: INSIDE WALL TEMPERATURE, Particle Class: cone particle
   181 Coords:     0.50     0.50     2.30, Make: null, ID: Qr2.3, Quantity: RADIATIVE HEAT FLUX, Particle Class: cone particle
   182 Coords:     0.50     0.50     2.30, Make: null, ID: Qc2.3, Quantity: CONVECTIVE HEAT FLUX, Particle Class: cone particle
   183 Coords:     0.50     0.50     2.30, Make: null, ID: Tsurf2.3, Quantity: WALL TEMPERATURE, Particle Class: cone particle
   184 Coords:     0.50     0.50     2.30, Make: null, ID: Tseed2.3, Quantity: INSIDE WALL TEMPERATURE, Particle Class: cone particle
   185 Coords:     0.50     0.50     2.35, Make: null, ID: Qr2.35, Quantity: RADIATIVE HEAT FLUX, Particle Class: cone particle
   186 Coords:     0.50     0.50     2.35, Make: null, ID: Qc2.35, Quantity: CONVECTIVE HEAT FLUX, Particle Class: cone particle
   187 Coords:     0.50     0.50     2.35, Make: null, ID: Tsurf2.35, Quantity: WALL TEMPERATURE, Particle Class: cone particle
   188 Coords:     0.50     0.50     2.35, Make: null, ID: Tseed2.35, Quantity: INSIDE WALL TEMPERATURE, Particle Class: cone particle
   189 Coords:     0.50     0.50     2.40, Make: null, ID: Qr2.4, Quantity: RADIATIVE HEAT FLUX, Particle Class: cone particle
   190 Coords:     0.50     0.50     2.40, Make: null, ID: Qc2.4, Quantity: CONVECTIVE HEAT FLUX, Particle Class: cone particle
   191 Coords:     0.50     0.50     2.40, Make: null, ID: Tsurf2.4, Quantity: WALL TEMPERATURE, Particle Class: cone particle
   192 Coords:     0.50     0.50     2.40, Make: null, ID: Tseed2.4, Quantity: INSIDE WALL TEMPERATURE, Particle Class: cone particle
   193 Coords:     0.50     0.50     2.45, Make: null, ID: Qr2.45, Quantity: RADIATIVE HEAT FLUX, Particle Class: cone particle
   194 Coords:     0.50     0.50     2.45, Make: null, ID: Qc2.45, Quantity: CONVECTIVE HEAT FLUX, Particle Class: cone particle
   195 Coords:     0.50     0.50     2.45, Make: null, ID: Tsurf2.45, Quantity: WALL TEMPERATURE, Particle Class: cone particle
   196 Coords:     0.50     0.50     2.45, Make: null, ID: Tseed2.45, Quantity: INSIDE WALL TEMPERATURE, Particle Class: cone particle
   197 Coords:     0.50     0.50     2.50, Make: null, ID: Qr2.5, Quantity: RADIATIVE HEAT FLUX, Particle Class: cone particle
   198 Coords:     0.50     0.50     2.50, Make: null, ID: Qc2.5, Quantity: CONVECTIVE HEAT FLUX, Particle Class: cone particle
   199 Coords:     0.50     0.50     2.50, Make: null, ID: Tsurf2.5, Quantity: WALL TEMPERATURE, Particle Class: cone particle
   200 Coords:     0.50     0.50     2.50, Make: null, ID: Tseed2.5, Quantity: INSIDE WALL TEMPERATURE, Particle Class: cone particle
   201 Coords:     0.50     0.50     2.55, Make: null, ID: Qr2.55, Quantity: RADIATIVE HEAT FLUX, Particle Class: cone particle
   202 Coords:     0.50     0.50     2.55, Make: null, ID: Qc2.55, Quantity: CONVECTIVE HEAT FLUX, Particle Class: cone particle
   203 Coords:     0.50     0.50     2.55, Make: null, ID: Tsurf2.55, Quantity: WALL TEMPERATURE, Particle Class: cone particle
   204 Coords:     0.50     0.50     2.55, Make: null, ID: Tseed2.55, Quantity: INSIDE WALL TEMPERATURE, Particle Class: cone particle
   205 Coords:     0.50     0.50     2.60, Make: null, ID: Qr2.6, Quantity: RADIATIVE HEAT FLUX, Particle Class: cone particle
   206 Coords:     0.50     0.50     2.60, Make: null, ID: Qc2.6, Quantity: CONVECTIVE HEAT FLUX, Particle Class: cone particle
   207 Coords:     0.50     0.50     2.60, Make: null, ID: Tsurf2.6, Quantity: WALL TEMPERATURE, Particle Class: cone particle
   208 Coords:     0.50     0.50     2.60, Make: null, ID: Tseed2.6, Quantity: INSIDE WALL TEMPERATURE, Particle Class: cone particle
   209 Coords:     0.50     0.50     2.65, Make: null, ID: Qr2.65, Quantity: RADIATIVE HEAT FLUX, Particle Class: cone particle
   210 Coords:     0.50     0.50     2.65, Make: null, ID: Qc2.65, Quantity: CONVECTIVE HEAT FLUX, Particle Class: cone particle
   211 Coords:     0.50     0.50     2.65, Make: null, ID: Tsurf2.65, Quantity: WALL TEMPERATURE, Particle Class: cone particle
   212 Coords:     0.50     0.50     2.65, Make: null, ID: Tseed2.65, Quantity: INSIDE WALL TEMPERATURE, Particle Class: cone particle
   213 Coords:     0.50     0.50     2.70, Make: null, ID: Qr2.7, Quantity: RADIATIVE HEAT FLUX, Particle Class: cone particle
   214 Coords:     0.50     0.50     2.70, Make: null, ID: Qc2.7, Quantity: CONVECTIVE HEAT FLUX, Particle Class: cone particle
   215 Coords:     0.50     0.50     2.70, Make: null, ID: Tsurf2.7, Quantity: WALL TEMPERATURE, Particle Class: cone particle
   216 Coords:     0.50     0.50     2.70, Make: null, ID: Tseed2.7, Quantity: INSIDE WALL TEMPERATURE, Particle Class: cone particle
   217 Coords:     0.50     0.50     2.75, Make: null, ID: Qr2.75, Quantity: RADIATIVE HEAT FLUX, Particle Class: cone particle
   218 Coords:     0.50     0.50     2.75, Make: null, ID: Qc2.75, Quantity: CONVECTIVE HEAT FLUX, Particle Class: cone particle
   219 Coords:     0.50     0.50     2.75, Make: null, ID: Tsurf2.75, Quantity: WALL TEMPERATURE, Particle Class: cone particle
   220 Coords:     0.50     0.50     2.75, Make: null, ID: Tseed2.75, Quantity: INSIDE WALL TEMPERATURE, Particle Class: cone particle
   221 Coords:     0.50     0.50     2.80, Make: null, ID: Qr2.8, Quantity: RADIATIVE HEAT FLUX, Particle Class: cone particle
   222 Coords:     0.50     0.50     2.80, Make: null, ID: Qc2.8, Quantity: CONVECTIVE HEAT FLUX, Particle Class: cone particle
   223 Coords:     0.50     0.50     2.80, Make: null, ID: Tsurf2.8, Quantity: WALL TEMPERATURE, Particle Class: cone particle
   224 Coords:     0.50     0.50     2.80, Make: null, ID: Tseed2.8, Quantity: INSIDE WALL TEMPERATURE, Particle Class: cone particle
   225 Coords:     0.50     0.50     2.85, Make: null, ID: Qr2.85, Quantity: RADIATIVE HEAT FLUX, Particle Class: cone particle
   226 Coords:     0.50     0.50     2.85, Make: null, ID: Qc2.85, Quantity: CONVECTIVE HEAT FLUX, Particle Class: cone particle
   227 Coords:     0.50     0.50     2.85, Make: null, ID: Tsurf2.85, Quantity: WALL TEMPERATURE, Particle Class: cone particle
   228 Coords:     0.50     0.50     2.85, Make: null, ID: Tseed2.85, Quantity: INSIDE WALL TEMPERATURE, Particle Class: cone particle
   229 Coords:     0.50     0.50     2.90, Make: null, ID: Qr2.9, Quantity: RADIATIVE HEAT FLUX, Particle Class: cone particle
   230 Coords:     0.50     0.50     2.90, Make: null, ID: Qc2.9, Quantity: CONVECTIVE HEAT FLUX, Particle Class: cone particle
   231 Coords:     0.50     0.50     2.90, Make: null, ID: Tsurf2.9, Quantity: WALL TEMPERATURE, Particle Class: cone particle
   232 Coords:     0.50     0.50     2.90, Make: null, ID: Tseed2.9, Quantity: INSIDE WALL TEMPERATURE, Particle Class: cone particle
   233 Coords:     0.50     0.50     2.95, Make: null, ID: Qr2.95, Quantity: RADIATIVE HEAT FLUX, Particle Class: cone particle
   234 Coords:     0.50     0.50     2.95, Make: null, ID: Qc2.95, Quantity: CONVECTIVE HEAT FLUX, Particle Class: cone particle
   235 Coords:     0.50     0.50     2.95, Make: null, ID: Tsurf2.95, Quantity: WALL TEMPERATURE, Particle Class: cone particle
   236 Coords:     0.50     0.50     2.95, Make: null, ID: Tseed2.95, Quantity: INSIDE WALL TEMPERATURE, Particle Class: cone particle
   237 Coords:     0.50     0.50     3.00, Make: null, ID: Qr3, Quantity: RADIATIVE HEAT FLUX, Particle Class: cone particle
   238 Coords:     0.50     0.50     3.00, Make: null, ID: Qc3, Quantity: CONVECTIVE HEAT FLUX, Particle Class: cone particle
   239 Coords:     0.50     0.50     3.00, Make: null, ID: Tsurf3, Quantity: WALL TEMPERATURE, Particle Class: cone particle
   240 Coords:     0.50     0.50     3.00, Make: null, ID: Tseed3, Quantity: INSIDE WALL TEMPERATURE, Particle Class: cone particle
   241 Coords:     0.50     0.50     3.05, Make: null, ID: Qr3.05, Quantity: RADIATIVE HEAT FLUX, Particle Class: cone particle
   242 Coords:     0.50     0.50     3.05, Make: null, ID: Qc3.05, Quantity: CONVECTIVE HEAT FLUX, Particle Class: cone particle
   243 Coords:     0.50     0.50     3.05, Make: null, ID: Tsurf3.05, Quantity: WALL TEMPERATURE, Particle Class: cone particle
   244 Coords:     0.50     0.50     3.05, Make: null, ID: Tseed3.05, Quantity: INSIDE WALL TEMPERATURE, Particle Class: cone particle
   245 Coords:     0.50     0.50     3.10, Make: null, ID: Qr3.1, Quantity: RADIATIVE HEAT FLUX, Particle Class: cone particle
   246 Coords:     0.50     0.50     3.10, Make: null, ID: Qc3.1, Quantity: CONVECTIVE HEAT FLUX, Particle Class: cone particle
   247 Coords:     0.50     0.50     3.10, Make: null, ID: Tsurf3.1, Quantity: WALL TEMPERATURE, Particle Class: cone particle
   248 Coords:     0.50     0.50     3.10, Make: null, ID: Tseed3.1, Quantity: INSIDE WALL TEMPERATURE, Particle Class: cone particle
   249 Coords:     0.50     0.50     3.15, Make: null, ID: Qr3.15, Quantity: RADIATIVE HEAT FLUX, Particle Class: cone particle
   250 Coords:     0.50     0.50     3.15, Make: null, ID: Qc3.15, Quantity: CONVECTIVE HEAT FLUX, Particle Class: cone particle
   251 Coords:     0.50     0.50     3.15, Make: null, ID: Tsurf3.15, Quantity: WALL TEMPERATURE, Particle Class: cone particle
   252 Coords:     0.50     0.50     3.15, Make: null, ID: Tseed3.15, Quantity: INSIDE WALL TEMPERATURE, Particle Class: cone particle
   253 Coords:     0.50     0.50     3.20, Make: null, ID: Qr3.2, Quantity: RADIATIVE HEAT FLUX, Particle Class: cone particle
   254 Coords:     0.50     0.50     3.20, Make: null, ID: Qc3.2, Quantity: CONVECTIVE HEAT FLUX, Particle Class: cone particle
   255 Coords:     0.50     0.50     3.20, Make: null, ID: Tsurf3.2, Quantity: WALL TEMPERATURE, Particle Class: cone particle
   256 Coords:     0.50     0.50     3.20, Make: null, ID: Tseed3.2, Quantity: INSIDE WALL TEMPERATURE, Particle Class: cone particle
   257 Coords:     0.50     0.50     3.25, Make: null, ID: Qr3.25, Quantity: RADIATIVE HEAT FLUX, Particle Class: cone particle
   258 Coords:     0.50     0.50     3.25, Make: null, ID: Qc3.25, Quantity: CONVECTIVE HEAT FLUX, Particle Class: cone particle
   259 Coords:     0.50     0.50     3.25, Make: null, ID: Tsurf3.25, Quantity: WALL TEMPERATURE, Particle Class: cone particle
   260 Coords:     0.50     0.50     3.25, Make: null, ID: Tseed3.25, Quantity: INSIDE WALL TEMPERATURE, Particle Class: cone particle
   261 Coords:     0.50     0.50     3.30, Make: null, ID: Qr3.3, Quantity: RADIATIVE HEAT FLUX, Particle Class: cone particle
   262 Coords:     0.50     0.50     3.30, Make: null, ID: Qc3.3, Quantity: CONVECTIVE HEAT FLUX, Particle Class: cone particle
   263 Coords:     0.50     0.50     3.30, Make: null, ID: Tsurf3.3, Quantity: WALL TEMPERATURE, Particle Class: cone particle
   264 Coords:     0.50     0.50     3.30, Make: null, ID: Tseed3.3, Quantity: INSIDE WALL TEMPERATURE, Particle Class: cone particle
   265 Coords:     0.50     0.50     3.35, Make: null, ID: Qr3.35, Quantity: RADIATIVE HEAT FLUX, Particle Class: cone particle
   266 Coords:     0.50     0.50     3.35, Make: null, ID: Qc3.35, Quantity: CONVECTIVE HEAT FLUX, Particle Class: cone particle
   267 Coords:     0.50     0.50     3.35, Make: null, ID: Tsurf3.35, Quantity: WALL TEMPERATURE, Particle Class: cone particle
   268 Coords:     0.50     0.50     3.35, Make: null, ID: Tseed3.35, Quantity: INSIDE WALL TEMPERATURE, Particle Class: cone particle
   269 Coords:     0.50     0.50     3.40, Make: null, ID: Qr3.4, Quantity: RADIATIVE HEAT FLUX, Particle Class: cone particle
   270 Coords:     0.50     0.50     3.40, Make: null, ID: Qc3.4, Quantity: CONVECTIVE HEAT FLUX, Particle Class: cone particle
   271 Coords:     0.50     0.50     3.40, Make: null, ID: Tsurf3.4, Quantity: WALL TEMPERATURE, Particle Class: cone particle
   272 Coords:     0.50     0.50     3.40, Make: null, ID: Tseed3.4, Quantity: INSIDE WALL TEMPERATURE, Particle Class: cone particle
   273 Coords:     0.50     0.50     3.45, Make: null, ID: Qr3.45, Quantity: RADIATIVE HEAT FLUX, Particle Class: cone particle
   274 Coords:     0.50     0.50     3.45, Make: null, ID: Qc3.45, Quantity: CONVECTIVE HEAT FLUX, Particle Class: cone particle
   275 Coords:     0.50     0.50     3.45, Make: null, ID: Tsurf3.45, Quantity: WALL TEMPERATURE, Particle Class: cone particle
   276 Coords:     0.50     0.50     3.45, Make: null, ID: Tseed3.45, Quantity: INSIDE WALL TEMPERATURE, Particle Class: cone particle
   277 Coords:     0.50     0.50     3.50, Make: null, ID: Qr3.5, Quantity: RADIATIVE HEAT FLUX, Particle Class: cone particle
   278 Coords:     0.50     0.50     3.50, Make: null, ID: Qc3.5, Quantity: CONVECTIVE HEAT FLUX, Particle Class: cone particle
   279 Coords:     0.50     0.50     3.50, Make: null, ID: Tsurf3.5, Quantity: WALL TEMPERATURE, Particle Class: cone particle
   280 Coords:     0.50     0.50     3.50, Make: null, ID: Tseed3.5, Quantity: INSIDE WALL TEMPERATURE, Particle Class: cone particle
   281 Coords:     0.50     0.50     3.55, Make: null, ID: Qr3.55, Quantity: RADIATIVE HEAT FLUX, Particle Class: cone particle
   282 Coords:     0.50     0.50     3.55, Make: null, ID: Qc3.55, Quantity: CONVECTIVE HEAT FLUX, Particle Class: cone particle
   283 Coords:     0.50     0.50     3.55, Make: null, ID: Tsurf3.55, Quantity: WALL TEMPERATURE, Particle Class: cone particle
   284 Coords:     0.50     0.50     3.55, Make: null, ID: Tseed3.55, Quantity: INSIDE WALL TEMPERATURE, Particle Class: cone particle
   285 Coords:     0.50     0.50     3.60, Make: null, ID: Qr3.6, Quantity: RADIATIVE HEAT FLUX, Particle Class: cone particle
   286 Coords:     0.50     0.50     3.60, Make: null, ID: Qc3.6, Quantity: CONVECTIVE HEAT FLUX, Particle Class: cone particle
   287 Coords:     0.50     0.50     3.60, Make: null, ID: Tsurf3.6, Quantity: WALL TEMPERATURE, Particle Class: cone particle
   288 Coords:     0.50     0.50     3.60, Make: null, ID: Tseed3.6, Quantity: INSIDE WALL TEMPERATURE, Particle Class: cone particle
   289 Coords:     0.50     0.50     3.65, Make: null, ID: Qr3.65, Quantity: RADIATIVE HEAT FLUX, Particle Class: cone particle
   290 Coords:     0.50     0.50     3.65, Make: null, ID: Qc3.65, Quantity: CONVECTIVE HEAT FLUX, Particle Class: cone particle
   291 Coords:     0.50     0.50     3.65, Make: null, ID: Tsurf3.65, Quantity: WALL TEMPERATURE, Particle Class: cone particle
   292 Coords:     0.50     0.50     3.65, Make: null, ID: Tseed3.65, Quantity: INSIDE WALL TEMPERATURE, Particle Class: cone particle
   293 Coords:     0.50     0.50     3.70, Make: null, ID: Qr3.7, Quantity: RADIATIVE HEAT FLUX, Particle Class: cone particle
   294 Coords:     0.50     0.50     3.70, Make: null, ID: Qc3.7, Quantity: CONVECTIVE HEAT FLUX, Particle Class: cone particle
   295 Coords:     0.50     0.50     3.70, Make: null, ID: Tsurf3.7, Quantity: WALL TEMPERATURE, Particle Class: cone particle
   296 Coords:     0.50     0.50     3.70, Make: null, ID: Tseed3.7, Quantity: INSIDE WALL TEMPERATURE, Particle Class: cone particle
   297 Coords:     0.50     0.50     3.75, Make: null, ID: Qr3.75, Quantity: RADIATIVE HEAT FLUX, Particle Class: cone particle
   298 Coords:     0.50     0.50     3.75, Make: null, ID: Qc3.75, Quantity: CONVECTIVE HEAT FLUX, Particle Class: cone particle
   299 Coords:     0.50     0.50     3.75, Make: null, ID: Tsurf3.75, Quantity: WALL TEMPERATURE, Particle Class: cone particle
   300 Coords:     0.50     0.50     3.75, Make: null, ID: Tseed3.75, Quantity: INSIDE WALL TEMPERATURE, Particle Class: cone particle
   301 Coords:     0.50     0.50     3.80, Make: null, ID: Qr3.8, Quantity: RADIATIVE HEAT FLUX, Particle Class: cone particle
   302 Coords:     0.50     0.50     3.80, Make: null, ID: Qc3.8, Quantity: CONVECTIVE HEAT FLUX, Particle Class: cone particle
   303 Coords:     0.50     0.50     3.80, Make: null, ID: Tsurf3.8, Quantity: WALL TEMPERATURE, Particle Class: cone particle
   304 Coords:     0.50     0.50     3.80, Make: null, ID: Tseed3.8, Quantity: INSIDE WALL TEMPERATURE, Particle Class: cone particle
   305 Coords:     0.50     0.50     3.85, Make: null, ID: Qr3.85, Quantity: RADIATIVE HEAT FLUX, Particle Class: cone particle
   306 Coords:     0.50     0.50     3.85, Make: null, ID: Qc3.85, Quantity: CONVECTIVE HEAT FLUX, Particle Class: cone particle
   307 Coords:     0.50     0.50     3.85, Make: null, ID: Tsurf3.85, Quantity: WALL TEMPERATURE, Particle Class: cone particle
   308 Coords:     0.50     0.50     3.85, Make: null, ID: Tseed3.85, Quantity: INSIDE WALL TEMPERATURE, Particle Class: cone particle
   309 Coords:     0.50     0.50     3.90, Make: null, ID: Qr3.9, Quantity: RADIATIVE HEAT FLUX, Particle Class: cone particle
   310 Coords:     0.50     0.50     3.90, Make: null, ID: Qc3.9, Quantity: CONVECTIVE HEAT FLUX, Particle Class: cone particle
   311 Coords:     0.50     0.50     3.90, Make: null, ID: Tsurf3.9, Quantity: WALL TEMPERATURE, Particle Class: cone particle
   312 Coords:     0.50     0.50     3.90, Make: null, ID: Tseed3.9, Quantity: INSIDE WALL TEMPERATURE, Particle Class: cone particle
   313 Coords:     0.50     0.50     3.95, Make: null, ID: Qr3.95, Quantity: RADIATIVE HEAT FLUX, Particle Class: cone particle
   314 Coords:     0.50     0.50     3.95, Make: null, ID: Qc3.95, Quantity: CONVECTIVE HEAT FLUX, Particle Class: cone particle
   315 Coords:     0.50     0.50     3.95, Make: null, ID: Tsurf3.95, Quantity: WALL TEMPERATURE, Particle Class: cone particle
   316 Coords:     0.50     0.50     3.95, Make: null, ID: Tseed3.95, Quantity: INSIDE WALL TEMPERATURE, Particle Class: cone particle
   317 Coords:     0.50     0.50     4.00, Make: null, ID: Qr4, Quantity: RADIATIVE HEAT FLUX, Particle Class: cone particle
   318 Coords:     0.50     0.50     4.00, Make: null, ID: Qc4, Quantity: CONVECTIVE HEAT FLUX, Particle Class: cone particle
   319 Coords:     0.50     0.50     4.00, Make: null, ID: Tsurf4, Quantity: WALL TEMPERATURE, Particle Class: cone particle
   320 Coords:     0.50     0.50     4.00, Make: null, ID: Tseed4, Quantity: INSIDE WALL TEMPERATURE, Particle Class: cone particle
   321 Coords:     0.50     0.50     4.05, Make: null, ID: Qr4.05, Quantity: RADIATIVE HEAT FLUX, Particle Class: cone particle
   322 Coords:     0.50     0.50     4.05, Make: null, ID: Qc4.05, Quantity: CONVECTIVE HEAT FLUX, Particle Class: cone particle
   323 Coords:     0.50     0.50     4.05, Make: null, ID: Tsurf4.05, Quantity: WALL TEMPERATURE, Particle Class: cone particle
   324 Coords:     0.50     0.50     4.05, Make: null, ID: Tseed4.05, Quantity: INSIDE WALL TEMPERATURE, Particle Class: cone particle
   325 Coords:     0.50     0.50     4.10, Make: null, ID: Qr4.1, Quantity: RADIATIVE HEAT FLUX, Particle Class: cone particle
   326 Coords:     0.50     0.50     4.10, Make: null, ID: Qc4.1, Quantity: CONVECTIVE HEAT FLUX, Particle Class: cone particle
   327 Coords:     0.50     0.50     4.10, Make: null, ID: Tsurf4.1, Quantity: WALL TEMPERATURE, Particle Class: cone particle
   328 Coords:     0.50     0.50     4.10, Make: null, ID: Tseed4.1, Quantity: INSIDE WALL TEMPERATURE, Particle Class: cone particle
   329 Coords:     0.50     0.50     4.15, Make: null, ID: Qr4.15, Quantity: RADIATIVE HEAT FLUX, Particle Class: cone particle
   330 Coords:     0.50     0.50     4.15, Make: null, ID: Qc4.15, Quantity: CONVECTIVE HEAT FLUX, Particle Class: cone particle
   331 Coords:     0.50     0.50     4.15, Make: null, ID: Tsurf4.15, Quantity: WALL TEMPERATURE, Particle Class: cone particle
   332 Coords:     0.50     0.50     4.15, Make: null, ID: Tseed4.15, Quantity: INSIDE WALL TEMPERATURE, Particle Class: cone particle
   333 Coords:     0.50     0.50     4.20, Make: null, ID: Qr4.2, Quantity: RADIATIVE HEAT FLUX, Particle Class: cone particle
   334 Coords:     0.50     0.50     4.20, Make: null, ID: Qc4.2, Quantity: CONVECTIVE HEAT FLUX, Particle Class: cone particle
   335 Coords:     0.50     0.50     4.20, Make: null, ID: Tsurf4.2, Quantity: WALL TEMPERATURE, Particle Class: cone particle
   336 Coords:     0.50     0.50     4.20, Make: null, ID: Tseed4.2, Quantity: INSIDE WALL TEMPERATURE, Particle Class: cone particle
   337 Coords:     0.50     0.50     4.25, Make: null, ID: Qr4.25, Quantity: RADIATIVE HEAT FLUX, Particle Class: cone particle
   338 Coords:     0.50     0.50     4.25, Make: null, ID: Qc4.25, Quantity: CONVECTIVE HEAT FLUX, Particle Class: cone particle
   339 Coords:     0.50     0.50     4.25, Make: null, ID: Tsurf4.25, Quantity: WALL TEMPERATURE, Particle Class: cone particle
   340 Coords:     0.50     0.50     4.25, Make: null, ID: Tseed4.25, Quantity: INSIDE WALL TEMPERATURE, Particle Class: cone particle
   341 Coords:     0.50     0.50     4.30, Make: null, ID: Qr4.3, Quantity: RADIATIVE HEAT FLUX, Particle Class: cone particle
   342 Coords:     0.50     0.50     4.30, Make: null, ID: Qc4.3, Quantity: CONVECTIVE HEAT FLUX, Particle Class: cone particle
   343 Coords:     0.50     0.50     4.30, Make: null, ID: Tsurf4.3, Quantity: WALL TEMPERATURE, Particle Class: cone particle
   344 Coords:     0.50     0.50     4.30, Make: null, ID: Tseed4.3, Quantity: INSIDE WALL TEMPERATURE, Particle Class: cone particle
   345 Coords:     0.50     0.50     4.35, Make: null, ID: Qr4.35, Quantity: RADIATIVE HEAT FLUX, Particle Class: cone particle
   346 Coords:     0.50     0.50     4.35, Make: null, ID: Qc4.35, Quantity: CONVECTIVE HEAT FLUX, Particle Class: cone particle
   347 Coords:     0.50     0.50     4.35, Make: null, ID: Tsurf4.35, Quantity: WALL TEMPERATURE, Particle Class: cone particle
   348 Coords:     0.50     0.50     4.35, Make: null, ID: Tseed4.35, Quantity: INSIDE WALL TEMPERATURE, Particle Class: cone particle
   349 Coords:     0.50     0.50     4.40, Make: null, ID: Qr4.4, Quantity: RADIATIVE HEAT FLUX, Particle Class: cone particle
   350 Coords:     0.50     0.50     4.40, Make: null, ID: Qc4.4, Quantity: CONVECTIVE HEAT FLUX, Particle Class: cone particle
   351 Coords:     0.50     0.50     4.40, Make: null, ID: Tsurf4.4, Quantity: WALL TEMPERATURE, Particle Class: cone particle
   352 Coords:     0.50     0.50     4.40, Make: null, ID: Tseed4.4, Quantity: INSIDE WALL TEMPERATURE, Particle Class: cone particle
   353 Coords:     0.50     0.50     4.45, Make: null, ID: Qr4.45, Quantity: RADIATIVE HEAT FLUX, Particle Class: cone particle
   354 Coords:     0.50     0.50     4.45, Make: null, ID: Qc4.45, Quantity: CONVECTIVE HEAT FLUX, Particle Class: cone particle
   355 Coords:     0.50     0.50     4.45, Make: null, ID: Tsurf4.45, Quantity: WALL TEMPERATURE, Particle Class: cone particle
   356 Coords:     0.50     0.50     4.45, Make: null, ID: Tseed4.45, Quantity: INSIDE WALL TEMPERATURE, Particle Class: cone particle
   357 Coords:     0.50     0.50     4.50, Make: null, ID: Qr4.5, Quantity: RADIATIVE HEAT FLUX, Particle Class: cone particle
   358 Coords:     0.50     0.50     4.50, Make: null, ID: Qc4.5, Quantity: CONVECTIVE HEAT FLUX, Particle Class: cone particle
   359 Coords:     0.50     0.50     4.50, Make: null, ID: Tsurf4.5, Quantity: WALL TEMPERATURE, Particle Class: cone particle
   360 Coords:     0.50     0.50     4.50, Make: null, ID: Tseed4.5, Quantity: INSIDE WALL TEMPERATURE, Particle Class: cone particle
   361 Coords:     0.50     0.50     4.55, Make: null, ID: Qr4.55, Quantity: RADIATIVE HEAT FLUX, Particle Class: cone particle
   362 Coords:     0.50     0.50     4.55, Make: null, ID: Qc4.55, Quantity: CONVECTIVE HEAT FLUX, Particle Class: cone particle
   363 Coords:     0.50     0.50     4.55, Make: null, ID: Tsurf4.55, Quantity: WALL TEMPERATURE, Particle Class: cone particle
   364 Coords:     0.50     0.50     4.55, Make: null, ID: Tseed4.55, Quantity: INSIDE WALL TEMPERATURE, Particle Class: cone particle
   365 Coords:     0.50     0.50     4.60, Make: null, ID: Qr4.6, Quantity: RADIATIVE HEAT FLUX, Particle Class: cone particle
   366 Coords:     0.50     0.50     4.60, Make: null, ID: Qc4.6, Quantity: CONVECTIVE HEAT FLUX, Particle Class: cone particle
   367 Coords:     0.50     0.50     4.60, Make: null, ID: Tsurf4.6, Quantity: WALL TEMPERATURE, Particle Class: cone particle
   368 Coords:     0.50     0.50     4.60, Make: null, ID: Tseed4.6, Quantity: INSIDE WALL TEMPERATURE, Particle Class: cone particle
   369 Coords:     0.50     0.50     4.65, Make: null, ID: Qr4.65, Quantity: RADIATIVE HEAT FLUX, Particle Class: cone particle
   370 Coords:     0.50     0.50     4.65, Make: null, ID: Qc4.65, Quantity: CONVECTIVE HEAT FLUX, Particle Class: cone particle
   371 Coords:     0.50     0.50     4.65, Make: null, ID: Tsurf4.65, Quantity: WALL TEMPERATURE, Particle Class: cone particle
   372 Coords:     0.50     0.50     4.65, Make: null, ID: Tseed4.65, Quantity: INSIDE WALL TEMPERATURE, Particle Class: cone particle
   373 Coords:     0.50     0.50     4.70, Make: null, ID: Qr4.7, Quantity: RADIATIVE HEAT FLUX, Particle Class: cone particle
   374 Coords:     0.50     0.50     4.70, Make: null, ID: Qc4.7, Quantity: CONVECTIVE HEAT FLUX, Particle Class: cone particle
   375 Coords:     0.50     0.50     4.70, Make: null, ID: Tsurf4.7, Quantity: WALL TEMPERATURE, Particle Class: cone particle
   376 Coords:     0.50     0.50     4.70, Make: null, ID: Tseed4.7, Quantity: INSIDE WALL TEMPERATURE, Particle Class: cone particle
   377 Coords:     0.50     0.50     4.75, Make: null, ID: Qr4.75, Quantity: RADIATIVE HEAT FLUX, Particle Class: cone particle
   378 Coords:     0.50     0.50     4.75, Make: null, ID: Qc4.75, Quantity: CONVECTIVE HEAT FLUX, Particle Class: cone particle
   379 Coords:     0.50     0.50     4.75, Make: null, ID: Tsurf4.75, Quantity: WALL TEMPERATURE, Particle Class: cone particle
   380 Coords:     0.50     0.50     4.75, Make: null, ID: Tseed4.75, Quantity: INSIDE WALL TEMPERATURE, Particle Class: cone particle
   381 Coords:     0.50     0.50     4.80, Make: null, ID: Qr4.8, Quantity: RADIATIVE HEAT FLUX, Particle Class: cone particle
   382 Coords:     0.50     0.50     4.80, Make: null, ID: Qc4.8, Quantity: CONVECTIVE HEAT FLUX, Particle Class: cone particle
   383 Coords:     0.50     0.50     4.80, Make: null, ID: Tsurf4.8, Quantity: WALL TEMPERATURE, Particle Class: cone particle
   384 Coords:     0.50     0.50     4.80, Make: null, ID: Tseed4.8, Quantity: INSIDE WALL TEMPERATURE, Particle Class: cone particle
   385 Coords:     0.50     0.50     4.85, Make: null, ID: Qr4.85, Quantity: RADIATIVE HEAT FLUX, Particle Class: cone particle
   386 Coords:     0.50     0.50     4.85, Make: null, ID: Qc4.85, Quantity: CONVECTIVE HEAT FLUX, Particle Class: cone particle
   387 Coords:     0.50     0.50     4.85, Make: null, ID: Tsurf4.85, Quantity: WALL TEMPERATURE, Particle Class: cone particle
   388 Coords:     0.50     0.50     4.85, Make: null, ID: Tseed4.85, Quantity: INSIDE WALL TEMPERATURE, Particle Class: cone particle
   389 Coords:     0.50     0.50     4.90, Make: null, ID: Qr4.9, Quantity: RADIATIVE HEAT FLUX, Particle Class: cone particle
   390 Coords:     0.50     0.50     4.90, Make: null, ID: Qc4.9, Quantity: CONVECTIVE HEAT FLUX, Particle Class: cone particle
   391 Coords:     0.50     0.50     4.90, Make: null, ID: Tsurf4.9, Quantity: WALL TEMPERATURE, Particle Class: cone particle
   392 Coords:     0.50     0.50     4.90, Make: null, ID: Tseed4.9, Quantity: INSIDE WALL TEMPERATURE, Particle Class: cone particle
   393 Coords:     0.50     0.50     4.95, Make: null, ID: Qr4.95, Quantity: RADIATIVE HEAT FLUX, Particle Class: cone particle
   394 Coords:     0.50     0.50     4.95, Make: null, ID: Qc4.95, Quantity: CONVECTIVE HEAT FLUX, Particle Class: cone particle
   395 Coords:     0.50     0.50     4.95, Make: null, ID: Tsurf4.95, Quantity: WALL TEMPERATURE, Particle Class: cone particle
   396 Coords:     0.50     0.50     4.95, Make: null, ID: Tseed4.95, Quantity: INSIDE WALL TEMPERATURE, Particle Class: cone particle
   397 Coords:     0.50     0.50     5.00, Make: null, ID: Qr5, Quantity: RADIATIVE HEAT FLUX, Particle Class: cone particle
   398 Coords:     0.50     0.50     5.00, Make: null, ID: Qc5, Quantity: CONVECTIVE HEAT FLUX, Particle Class: cone particle
   399 Coords:     0.50     0.50     5.00, Make: null, ID: Tsurf5, Quantity: WALL TEMPERATURE, Particle Class: cone particle
   400 Coords:     0.50     0.50     5.00, Make: null, ID: Tseed5, Quantity: INSIDE WALL TEMPERATURE, Particle Class: cone particle


 Slice File Information, Mesh     1

   Sampling Interval (s)             0.600

   1 Nodes:   0  20  10  10   0 102, Quantity: INTEGRATED INTENSITY
   2 Nodes:   0  20  10  10   0 102, Quantity: TEMPERATURE


 Radiation Model Information

   Number of control angles  104
   Time step increment         3
   Angle increment             5
   Theta band N_phi   Solid angle
     1:        4  0.12
     2:       12  0.11
     3:       16  0.13
     4:       20  0.12
     5:       20  0.12
     6:       16  0.13
     7:       12  0.11
     8:        4  0.12
   Using gray gas absorption.
   Mean beam length  0.250 m
 
 

 Run Time Diagnostics

       Time Step       1   January 18, 2018  16:24:44
       Pressure Iterations:      1
       Maximum Velocity Error:  0.00E+00 on Mesh   1 at (   0   0   0)
       ----------------------------------------------
       CPU/step:     0.891 s, Total CPU:      0.89 s
       Time step:  0.03501 s, Total time:     0.04 s
       Max CFL number:  0.13E-01 at ( 12,  3, 64)
       Max divergence:  0.62E-04 at ( 11, 11, 88)
       Min divergence: -0.14E-05 at ( 12, 18, 88)
       No. of Lagrangian Particles:           100
 
       Time Step       2   January 18, 2018  16:24:45
       Pressure Iterations:      1
       Maximum Velocity Error:  0.00E+00 on Mesh   1 at (   0   0   0)
       ----------------------------------------------
       CPU/step:     0.250 s, Total CPU:      1.14 s
       Time step:  0.03501 s, Total time:     0.07 s
       Max CFL number:  0.13E-01 at ( 12,  3, 64)
       Max divergence:  0.62E-04 at ( 11, 11, 51)
       Min divergence: -0.14E-05 at ( 12, 18, 88)
       No. of Lagrangian Particles:           100
 
       Time Step       3   January 18, 2018  16:24:45
       Pressure Iterations:      1
       Maximum Velocity Error:  0.00E+00 on Mesh   1 at (   0   0   0)
       ----------------------------------------------
       CPU/step:     0.281 s, Total CPU:      1.42 s
       Time step:  0.03501 s, Total time:     0.11 s
       Max CFL number:  0.13E-01 at ( 12,  3, 64)
       Max divergence:  0.63E-04 at ( 11, 11, 51)
       Min divergence: -0.14E-05 at ( 12, 18, 88)
       No. of Lagrangian Particles:           100
 
       Time Step       4   January 18, 2018  16:24:45
       Pressure Iterations:      1
       Maximum Velocity Error:  0.00E+00 on Mesh   1 at (   0   0   0)
       ----------------------------------------------
       CPU/step:     0.344 s, Total CPU:      1.77 s
       Time step:  0.03501 s, Total time:     0.14 s
       Max CFL number:  0.13E-01 at ( 12,  3, 64)
       Max divergence:  0.63E-04 at ( 11, 11, 51)
       Min divergence: -0.14E-05 at ( 12, 18, 88)
       No. of Lagrangian Particles:           100
 
       Time Step       5   January 18, 2018  16:24:46
       Pressure Iterations:      1
       Maximum Velocity Error:  0.00E+00 on Mesh   1 at (   0   0   0)
       ----------------------------------------------
       CPU/step:     0.266 s, Total CPU:      2.03 s
       Time step:  0.03501 s, Total time:     0.18 s
       Max CFL number:  0.13E-01 at ( 12,  4, 86)
       Max divergence:  0.63E-04 at ( 11, 11, 51)
       Min divergence: -0.14E-05 at ( 12, 18, 88)
       No. of Lagrangian Particles:           100
 
       Time Step       6   January 18, 2018  16:24:46
       Pressure Iterations:      1
       Maximum Velocity Error:  0.00E+00 on Mesh   1 at (   0   0   0)
       ----------------------------------------------
       CPU/step:     0.281 s, Total CPU:      2.31 s
       Time step:  0.03501 s, Total time:     0.21 s
       Max CFL number:  0.13E-01 at ( 12,  4, 86)
       Max divergence:  0.63E-04 at ( 11, 11, 51)
       Min divergence: -0.14E-05 at ( 12, 18, 88)
       No. of Lagrangian Particles:           100
 
       Time Step       7   January 18, 2018  16:24:46
       Pressure Iterations:      1
       Maximum Velocity Error:  0.00E+00 on Mesh   1 at (   0   0   0)
       ----------------------------------------------
       CPU/step:     0.391 s, Total CPU:      2.70 s
       Time step:  0.03501 s, Total time:     0.25 s
       Max CFL number:  0.13E-01 at ( 12,  4, 86)
       Max divergence:  0.63E-04 at ( 11, 11, 51)
       Min divergence: -0.14E-05 at ( 12, 18, 88)
       No. of Lagrangian Particles:           100
 
       Time Step       8   January 18, 2018  16:24:46
       Pressure Iterations:      1
       Maximum Velocity Error:  0.00E+00 on Mesh   1 at (   0   0   0)
       ----------------------------------------------
       CPU/step:     0.281 s, Total CPU:      2.98 s
       Time step:  0.03501 s, Total time:     0.28 s
       Max CFL number:  0.13E-01 at ( 12,  4, 86)
       Max divergence:  0.63E-04 at ( 11, 11, 51)
       Min divergence: -0.14E-05 at ( 12, 18, 88)
       No. of Lagrangian Particles:           100
 
       Time Step       9   January 18, 2018  16:24:47
       Pressure Iterations:      1
       Maximum Velocity Error:  0.00E+00 on Mesh   1 at (   0   0   0)
       ----------------------------------------------
       CPU/step:     0.281 s, Total CPU:      3.27 s
       Time step:  0.03501 s, Total time:     0.32 s
       Max CFL number:  0.13E-01 at ( 12,  4, 86)
       Max divergence:  0.63E-04 at ( 11, 11, 51)
       Min divergence: -0.14E-05 at ( 12, 18, 88)
       No. of Lagrangian Particles:           100
 
       Time Step      10   January 18, 2018  16:24:47
       Pressure Iterations:      1
       Maximum Velocity Error:  0.00E+00 on Mesh   1 at (   0   0   0)
       ----------------------------------------------
       CPU/step:     0.391 s, Total CPU:      3.66 s
       Time step:  0.03501 s, Total time:     0.35 s
       Max CFL number:  0.13E-01 at ( 12,  4, 86)
       Max divergence:  0.63E-04 at ( 11, 11, 10)
       Min divergence: -0.14E-05 at ( 12, 18, 88)
       No. of Lagrangian Particles:           100
 
       Time Step      20   January 18, 2018  16:24:50
       Pressure Iterations:      1
       Maximum Velocity Error:  0.00E+00 on Mesh   1 at (   0   0   0)
       ----------------------------------------------
       CPU/step:     0.308 s, Total CPU:      6.73 s
       Time step:  0.03501 s, Total time:     0.70 s
       Max CFL number:  0.12E-01 at ( 16,  7, 64)
       Max divergence:  0.62E-04 at ( 11, 11, 10)
       Min divergence: -0.14E-05 at ( 12, 18, 88)
       No. of Lagrangian Particles:           100
 
       Time Step      30   January 18, 2018  16:24:53
       Pressure Iterations:      1
       Maximum Velocity Error:  0.00E+00 on Mesh   1 at (   0   0   0)
       ----------------------------------------------
       CPU/step:     0.300 s, Total CPU:      9.73 s
       Time step:  0.03501 s, Total time:     1.05 s
       Max CFL number:  0.12E-01 at ( 16,  7, 64)
       Max divergence:  0.62E-04 at ( 11, 11, 83)
       Min divergence: -0.13E-05 at ( 12, 18, 88)
       No. of Lagrangian Particles:           100
 
       Time Step      40   January 18, 2018  16:24:57
       Pressure Iterations:      1
       Maximum Velocity Error:  0.00E+00 on Mesh   1 at (   0   0   0)
       ----------------------------------------------
       CPU/step:     0.317 s, Total CPU:     12.91 s
       Time step:  0.03501 s, Total time:     1.40 s
       Max CFL number:  0.12E-01 at ( 16,  7, 64)
       Max divergence:  0.61E-04 at ( 11, 11, 27)
       Min divergence: -0.13E-05 at ( 12, 18, 88)
       No. of Lagrangian Particles:           100
 
       Time Step      50   January 18, 2018  16:25:00
       Pressure Iterations:      1
       Maximum Velocity Error:  0.00E+00 on Mesh   1 at (   0   0   0)
       ----------------------------------------------
       CPU/step:     0.306 s, Total CPU:     15.97 s
       Time step:  0.03501 s, Total time:     1.75 s
       Max CFL number:  0.12E-01 at (  7,  3, 59)
       Max divergence:  0.61E-04 at ( 11, 11, 27)
       Min divergence: -0.13E-05 at ( 12, 18, 88)
       No. of Lagrangian Particles:           100
 
       Time Step      60   January 18, 2018  16:25:03
       Pressure Iterations:      1
       Maximum Velocity Error:  0.00E+00 on Mesh   1 at (   0   0   0)
       ----------------------------------------------
       CPU/step:     0.302 s, Total CPU:     18.98 s
       Time step:  0.03501 s, Total time:     2.10 s
       Max CFL number:  0.11E-01 at (  7,  3, 59)
       Max divergence:  0.61E-04 at ( 11, 11, 27)
       Min divergence: -0.12E-05 at ( 12, 18, 88)
       No. of Lagrangian Particles:           100
 
       Time Step      70   January 18, 2018  16:25:06
       Pressure Iterations:      1
       Maximum Velocity Error:  0.00E+00 on Mesh   1 at (   0   0   0)
       ----------------------------------------------
       CPU/step:     0.317 s, Total CPU:     22.16 s
       Time step:  0.03501 s, Total time:     2.45 s
       Max CFL number:  0.11E-01 at (  7,  3, 59)
       Max divergence:  0.60E-04 at ( 11, 11, 27)
       Min divergence: -0.12E-05 at ( 12, 18, 88)
       No. of Lagrangian Particles:           100
 
       Time Step      80   January 18, 2018  16:25:09
       Pressure Iterations:      1
       Maximum Velocity Error:  0.00E+00 on Mesh   1 at (   0   0   0)
       ----------------------------------------------
       CPU/step:     0.308 s, Total CPU:     25.23 s
       Time step:  0.03501 s, Total time:     2.80 s
       Max CFL number:  0.11E-01 at (  7,  3, 59)
       Max divergence:  0.60E-04 at ( 11, 11, 27)
       Min divergence: -0.11E-05 at ( 12, 18, 88)
       No. of Lagrangian Particles:           100
 
       Time Step      90   January 18, 2018  16:25:12
       Pressure Iterations:      1
       Maximum Velocity Error:  0.00E+00 on Mesh   1 at (   0   0   0)
       ----------------------------------------------
       CPU/step:     0.306 s, Total CPU:     28.30 s
       Time step:  0.03501 s, Total time:     3.15 s
       Max CFL number:  0.11E-01 at (  7,  3, 59)
       Max divergence:  0.60E-04 at ( 11, 11, 57)
       Min divergence: -0.11E-05 at (  7,  3, 59)
       No. of Lagrangian Particles:           100
 
       Time Step     100   January 18, 2018  16:25:16
       Pressure Iterations:      1
       Maximum Velocity Error:  0.00E+00 on Mesh   1 at (   0   0   0)
       ----------------------------------------------
       CPU/step:     0.314 s, Total CPU:     31.44 s
       Time step:  0.03501 s, Total time:     3.50 s
       Max CFL number:  0.11E-01 at (  7,  3, 59)
       Max divergence:  0.60E-04 at ( 11, 11, 57)
       Min divergence: -0.11E-05 at (  7,  3, 59)
       No. of Lagrangian Particles:           100
 
       Time Step     200   January 18, 2018  16:25:47
       Pressure Iterations:      1
       Maximum Velocity Error:  0.00E+00 on Mesh   1 at (   0   0   0)
       ----------------------------------------------
       CPU/step:     0.310 s, Total CPU:      1.04 min
       Time step:  0.03501 s, Total time:     7.00 s
       Max CFL number:  0.81E-02 at ( 19, 12, 52)
       Max divergence:  0.59E-04 at ( 11, 11, 57)
       Min divergence: -0.23E-05 at ( 11, 12, 82)
       No. of Lagrangian Particles:           100
 
       Time Step     300   January 18, 2018  16:26:19
       Pressure Iterations:      1
       Maximum Velocity Error:  0.00E+00 on Mesh   1 at (   0   0   0)
       ----------------------------------------------
       CPU/step:     0.309 s, Total CPU:      1.55 min
       Time step:  0.03501 s, Total time:    10.50 s
       Max CFL number:  0.79E-02 at ( 11, 11, 72)
       Max divergence:  0.96E-02 at ( 11,  7,  1)
       Min divergence: -0.24E-05 at ( 11, 12, 82)
       No. of Lagrangian Particles:           100
       Radiation Loss to Boundaries:         0.005 kW
 
       Time Step     400   January 18, 2018  16:26:50
       Pressure Iterations:      1
       Maximum Velocity Error:  0.00E+00 on Mesh   1 at (   0   0   0)
       ----------------------------------------------
       CPU/step:     0.309 s, Total CPU:      2.07 min
       Time step:  0.03501 s, Total time:    14.00 s
       Max CFL number:  0.56E+00 at ( 16,  4,  6)
       Max divergence:  0.23E+00 at (  4,  7,  1)
       Min divergence: -0.31E+00 at ( 14,  5,  3)
       No. of Lagrangian Particles:           100
       Radiation Loss to Boundaries:         0.251 kW
 
       Time Step     500   January 18, 2018  16:27:22
       Pressure Iterations:      1
       Maximum Velocity Error:  0.00E+00 on Mesh   1 at (   0   0   0)
       ----------------------------------------------
       CPU/step:     0.313 s, Total CPU:      2.59 min
       Time step:  0.01804 s, Total time:    16.73 s
       Max CFL number:  0.90E+00 at ( 11, 11, 23)
       Max divergence:  0.46E+00 at ( 14, 10,  1)
       Min divergence: -0.45E+00 at ( 16,  5,  2)
       No. of Lagrangian Particles:           100
       Radiation Loss to Boundaries:         0.872 kW
 
       Time Step     600   January 18, 2018  16:27:54
       Pressure Iterations:      1
       Maximum Velocity Error:  0.00E+00 on Mesh   1 at (   0   0   0)
       ----------------------------------------------
       CPU/step:     0.310 s, Total CPU:      3.11 min
       Time step:  0.01555 s, Total time:    18.53 s
       Max CFL number:  0.83E+00 at ( 14,  9, 48)
       Max divergence:  0.56E+00 at ( 13,  6,  1)
       Min divergence: -0.44E+00 at ( 11, 11,  2)
       No. of Lagrangian Particles:           100
       Radiation Loss to Boundaries:         1.631 kW
 
       Time Step     700   January 18, 2018  16:28:26
       Pressure Iterations:      1
       Maximum Velocity Error:  0.00E+00 on Mesh   1 at (   0   0   0)
       ----------------------------------------------
       CPU/step:     0.312 s, Total CPU:      3.63 min
       Time step:  0.01511 s, Total time:    20.14 s
       Max CFL number:  0.85E+00 at ( 13, 10, 25)
       Max divergence:  0.67E+00 at (  7,  6,  1)
       Min divergence: -0.52E+00 at ( 11, 12,  4)
       No. of Lagrangian Particles:           100
       Radiation Loss to Boundaries:         2.664 kW
 
       Time Step     800   January 18, 2018  16:28:57
       Pressure Iterations:      1
       Maximum Velocity Error:  0.00E+00 on Mesh   1 at (   0   0   0)
       ----------------------------------------------
       CPU/step:     0.311 s, Total CPU:      4.15 min
       Time step:  0.01443 s, Total time:    21.57 s
       Max CFL number:  0.89E+00 at (  9, 16, 51)
       Max divergence:  0.94E+00 at ( 10, 10,  1)
       Min divergence: -0.95E+00 at ( 11, 11,  2)
       No. of Lagrangian Particles:           100
       Radiation Loss to Boundaries:         3.897 kW
 
       Time Step     900   January 18, 2018  16:29:29
       Pressure Iterations:      1
       Maximum Velocity Error:  0.00E+00 on Mesh   1 at (   0   0   0)
       ----------------------------------------------
       CPU/step:     0.312 s, Total CPU:      4.67 min
       Time step:  0.01443 s, Total time:    23.02 s
       Max CFL number:  0.98E+00 at ( 12, 11, 29)
       Max divergence:  0.10E+01 at (  8, 15,  1)
       Min divergence: -0.65E+00 at ( 11,  9,  6)
       No. of Lagrangian Particles:           100
       Total Heat Release Rate:              0.002 kW
       Radiation Loss to Boundaries:         5.528 kW
 
       Time Step    1000   January 18, 2018  16:30:01
       Pressure Iterations:      1
       Maximum Velocity Error:  0.00E+00 on Mesh   1 at (   0   0   0)
       ----------------------------------------------
[...]
       Pressure Iterations:      1
       Maximum Velocity Error:  0.00E+00 on Mesh   1 at (   0   0   0)
       ----------------------------------------------
       CPU/step:     0.312 s, Total CPU:      3.26 hr
       Time step:  0.03501 s, Total time:   474.39 s
       Max CFL number:  0.40E+00 at (  9, 11, 88)
       Max divergence:  0.76E-02 at ( 11, 11, 70)
       Min divergence: -0.25E-02 at ( 11, 12, 60)
       No. of Lagrangian Particles:           100
 
       Time Step   36200   January 18, 2018  19:43:47
       Pressure Iterations:      1
       Maximum Velocity Error:  0.00E+00 on Mesh   1 at (   0   0   0)
       ----------------------------------------------
       CPU/step:     0.311 s, Total CPU:      3.27 hr
       Time step:  0.03501 s, Total time:   477.89 s
       Max CFL number:  0.39E+00 at ( 12, 12, 91)
       Max divergence:  0.84E-02 at ( 11, 11, 64)
       Min divergence: -0.30E-02 at (  9, 12, 56)
       No. of Lagrangian Particles:           100
 
       Time Step   36300   January 18, 2018  19:44:18
       Pressure Iterations:      1
       Maximum Velocity Error:  0.00E+00 on Mesh   1 at (   0   0   0)
       ----------------------------------------------
       CPU/step:     0.310 s, Total CPU:      3.28 hr
       Time step:  0.03501 s, Total time:   481.39 s
       Max CFL number:  0.39E+00 at (  9, 10, 98)
       Max divergence:  0.80E-02 at ( 11, 11, 72)
       Min divergence: -0.28E-02 at ( 12, 11, 56)
       No. of Lagrangian Particles:           100
 
       Time Step   36400   January 18, 2018  19:44:51
       Pressure Iterations:      1
       Maximum Velocity Error:  0.00E+00 on Mesh   1 at (   0   0   0)
       ----------------------------------------------
       CPU/step:     0.315 s, Total CPU:      3.29 hr
       Time step:  0.03501 s, Total time:   484.89 s
       Max CFL number:  0.39E+00 at (  8, 13, 92)
       Max divergence:  0.72E-02 at ( 11, 11, 50)
       Min divergence: -0.35E-02 at ( 10, 11, 68)
       No. of Lagrangian Particles:           100
 
       Time Step   36500   January 18, 2018  19:45:22
       Pressure Iterations:      1
       Maximum Velocity Error:  0.00E+00 on Mesh   1 at (   0   0   0)
       ----------------------------------------------
       CPU/step:     0.311 s, Total CPU:      3.30 hr
       Time step:  0.03501 s, Total time:   488.39 s
       Max CFL number:  0.38E+00 at ( 13, 11, 75)
       Max divergence:  0.83E-02 at ( 11, 11, 58)
       Min divergence: -0.30E-02 at ( 10, 11, 72)
       No. of Lagrangian Particles:           100
 
       Time Step   36600   January 18, 2018  19:45:54
       Pressure Iterations:      1
       Maximum Velocity Error:  0.00E+00 on Mesh   1 at (   0   0   0)
       ----------------------------------------------
       CPU/step:     0.312 s, Total CPU:      3.30 hr
       Time step:  0.03501 s, Total time:   491.89 s
       Max CFL number:  0.35E+00 at ( 10, 11, 59)
       Max divergence:  0.95E-02 at ( 11, 11, 62)
       Min divergence: -0.18E-02 at ( 15, 13, 98)
       No. of Lagrangian Particles:           100
 
       Time Step   36700   January 18, 2018  19:46:26
       Pressure Iterations:      1
       Maximum Velocity Error:  0.00E+00 on Mesh   1 at (   0   0   0)
       ----------------------------------------------
       CPU/step:     0.311 s, Total CPU:      3.31 hr
       Time step:  0.03501 s, Total time:   495.39 s
       Max CFL number:  0.33E+00 at ( 12, 12, 97)
       Max divergence:  0.79E-02 at ( 11, 11, 65)
       Min divergence: -0.21E-02 at ( 12, 11, 55)
       No. of Lagrangian Particles:           100
 
       Time Step   36800   January 18, 2018  19:46:58
       Pressure Iterations:      1
       Maximum Velocity Error:  0.00E+00 on Mesh   1 at (   0   0   0)
       ----------------------------------------------
       CPU/step:     0.311 s, Total CPU:      3.32 hr
       Time step:  0.03501 s, Total time:   498.89 s
       Max CFL number:  0.33E+00 at ( 12, 11, 67)
       Max divergence:  0.87E-02 at ( 11, 11, 66)
       Min divergence: -0.26E-02 at ( 10, 13, 64)
       No. of Lagrangian Particles:           100
 
       Time Step   36900   January 18, 2018  19:47:29
       Pressure Iterations:      1
       Maximum Velocity Error:  0.00E+00 on Mesh   1 at (   0   0   0)
       ----------------------------------------------
       CPU/step:     0.312 s, Total CPU:      3.33 hr
       Time step:  0.03501 s, Total time:   502.39 s
       Max CFL number:  0.37E+00 at (  9, 12, 76)
       Max divergence:  0.77E-02 at ( 11, 11, 66)
       Min divergence: -0.21E-02 at ( 11, 12, 65)
       No. of Lagrangian Particles:           100
 
       Time Step   37000   January 18, 2018  19:48:01
       Pressure Iterations:      1
       Maximum Velocity Error:  0.00E+00 on Mesh   1 at (   0   0   0)
       ----------------------------------------------
       CPU/step:     0.311 s, Total CPU:      3.34 hr
       Time step:  0.03501 s, Total time:   505.89 s
       Max CFL number:  0.33E+00 at ( 12, 11, 58)
       Max divergence:  0.75E-02 at ( 11, 11, 62)
       Min divergence: -0.23E-02 at ( 11, 10, 78)
       No. of Lagrangian Particles:           100
 
       Time Step   37100   January 18, 2018  19:48:33
       Pressure Iterations:      1
       Maximum Velocity Error:  0.00E+00 on Mesh   1 at (   0   0   0)
       ----------------------------------------------
       CPU/step:     0.309 s, Total CPU:      3.35 hr
       Time step:  0.03501 s, Total time:   509.39 s
       Max CFL number:  0.35E+00 at ( 13, 11, 73)
       Max divergence:  0.78E-02 at ( 11, 11, 59)
       Min divergence: -0.34E-02 at ( 11, 10, 66)
       No. of Lagrangian Particles:           100
 
       Time Step   37200   January 18, 2018  19:49:04
       Pressure Iterations:      1
       Maximum Velocity Error:  0.00E+00 on Mesh   1 at (   0   0   0)
       ----------------------------------------------
       CPU/step:     0.311 s, Total CPU:      3.36 hr
       Time step:  0.03501 s, Total time:   512.89 s
       Max CFL number:  0.35E+00 at ( 12, 13, 74)
       Max divergence:  0.67E-02 at ( 11, 11, 54)
       Min divergence: -0.30E-02 at ( 10, 11, 59)
       No. of Lagrangian Particles:           100
 
       Time Step   37300   January 18, 2018  19:49:36
       Pressure Iterations:      1
       Maximum Velocity Error:  0.00E+00 on Mesh   1 at (   0   0   0)
       ----------------------------------------------
       CPU/step:     0.310 s, Total CPU:      3.37 hr
       Time step:  0.03501 s, Total time:   516.39 s
       Max CFL number:  0.42E+00 at ( 12, 11, 86)
       Max divergence:  0.67E-02 at ( 11, 11, 62)
       Min divergence: -0.29E-02 at ( 12, 11, 86)
       No. of Lagrangian Particles:           100
 
       Time Step   37400   January 18, 2018  19:50:06
       Pressure Iterations:      1
       Maximum Velocity Error:  0.00E+00 on Mesh   1 at (   0   0   0)
       ----------------------------------------------
       CPU/step:     0.301 s, Total CPU:      3.37 hr
       Time step:  0.03501 s, Total time:   519.90 s
       Max CFL number:  0.36E+00 at ( 11, 13, 94)
       Max divergence:  0.68E-02 at ( 11, 11, 57)
       Min divergence: -0.25E-02 at ( 11, 10, 64)
       No. of Lagrangian Particles:           100
 
       Time Step   37500   January 18, 2018  19:50:34
       Pressure Iterations:      1
       Maximum Velocity Error:  0.00E+00 on Mesh   1 at (   0   0   0)
       ----------------------------------------------
       CPU/step:     0.279 s, Total CPU:      3.38 hr
       Time step:  0.03501 s, Total time:   523.40 s
       Max CFL number:  0.34E+00 at ( 11, 12, 73)
       Max divergence:  0.74E-02 at ( 11, 11, 59)
       Min divergence: -0.28E-02 at ( 11, 10, 66)
       No. of Lagrangian Particles:           100
 
       Time Step   37600   January 18, 2018  19:51:03
       Pressure Iterations:      1
       Maximum Velocity Error:  0.00E+00 on Mesh   1 at (   0   0   0)
       ----------------------------------------------
       CPU/step:     0.279 s, Total CPU:      3.39 hr
       Time step:  0.03501 s, Total time:   526.90 s
       Max CFL number:  0.37E+00 at ( 11, 13, 81)
       Max divergence:  0.59E-02 at ( 11, 11, 69)
       Min divergence: -0.23E-02 at ( 11, 10, 67)
       No. of Lagrangian Particles:           100
 
       Time Step   37700   January 18, 2018  19:51:30
       Pressure Iterations:      1
       Maximum Velocity Error:  0.00E+00 on Mesh   1 at (   0   0   0)
       ----------------------------------------------
       CPU/step:     0.273 s, Total CPU:      3.40 hr
       Time step:  0.03501 s, Total time:   530.40 s
       Max CFL number:  0.36E+00 at ( 13, 11, 87)
       Max divergence:  0.71E-02 at ( 11, 11, 56)
       Min divergence: -0.24E-02 at ( 11, 12, 70)
       No. of Lagrangian Particles:           100
 
       Time Step   37800   January 18, 2018  19:51:55
       Pressure Iterations:      1
       Maximum Velocity Error:  0.00E+00 on Mesh   1 at (   0   0   0)
       ----------------------------------------------
       CPU/step:     0.249 s, Total CPU:      3.40 hr
       Time step:  0.03501 s, Total time:   533.90 s
       Max CFL number:  0.32E+00 at ( 11, 10, 97)
       Max divergence:  0.67E-02 at ( 11, 11, 61)
       Min divergence: -0.21E-02 at ( 10,  9, 74)
       No. of Lagrangian Particles:           100
 
       Time Step   37900   January 18, 2018  19:52:20
       Pressure Iterations:      1
       Maximum Velocity Error:  0.00E+00 on Mesh   1 at (   0   0   0)
       ----------------------------------------------
       CPU/step:     0.246 s, Total CPU:      3.41 hr
       Time step:  0.03501 s, Total time:   537.40 s
       Max CFL number:  0.35E+00 at ( 12, 12, 86)
       Max divergence:  0.65E-02 at ( 11, 11, 68)
       Min divergence: -0.21E-02 at ( 10, 11, 65)
       No. of Lagrangian Particles:           100
 
       Time Step   38000   January 18, 2018  19:52:45
       Pressure Iterations:      1
       Maximum Velocity Error:  0.00E+00 on Mesh   1 at (   0   0   0)
       ----------------------------------------------
       CPU/step:     0.245 s, Total CPU:      3.42 hr
       Time step:  0.03501 s, Total time:   540.90 s
       Max CFL number:  0.35E+00 at ( 10, 11, 57)
       Max divergence:  0.77E-02 at ( 11, 11, 65)
       Min divergence: -0.24E-02 at ( 12, 11, 64)
       No. of Lagrangian Particles:           100
 
       Time Step   38100   January 18, 2018  19:53:11
       Pressure Iterations:      1
       Maximum Velocity Error:  0.00E+00 on Mesh   1 at (   0   0   0)
       ----------------------------------------------
       CPU/step:     0.259 s, Total CPU:      3.42 hr
       Time step:  0.03501 s, Total time:   544.40 s
       Max CFL number:  0.36E+00 at ( 15, 11, 84)
       Max divergence:  0.62E-02 at ( 11, 11, 66)
       Min divergence: -0.23E-02 at ( 10, 11, 65)
       No. of Lagrangian Particles:           100
 
       Time Step   38200   January 18, 2018  19:53:36
       Pressure Iterations:      1
       Maximum Velocity Error:  0.00E+00 on Mesh   1 at (   0   0   0)
       ----------------------------------------------
       CPU/step:     0.252 s, Total CPU:      3.43 hr
       Time step:  0.03501 s, Total time:   547.90 s
       Max CFL number:  0.32E+00 at ( 11, 11, 81)
       Max divergence:  0.60E-02 at ( 11, 11, 49)
       Min divergence: -0.19E-02 at ( 12, 11, 49)
       No. of Lagrangian Particles:           100
 
       Time Step   38300   January 18, 2018  19:54:02
       Pressure Iterations:      1
       Maximum Velocity Error:  0.00E+00 on Mesh   1 at (   0   0   0)
       ----------------------------------------------
       CPU/step:     0.255 s, Total CPU:      3.44 hr
       Time step:  0.03501 s, Total time:   551.40 s
       Max CFL number:  0.31E+00 at ( 10, 10, 78)
       Max divergence:  0.61E-02 at ( 11, 11, 64)
       Min divergence: -0.17E-02 at ( 10, 11, 79)
       No. of Lagrangian Particles:           100
 
       Time Step   38400   January 18, 2018  19:54:27
       Pressure Iterations:      1
       Maximum Velocity Error:  0.00E+00 on Mesh   1 at (   0   0   0)
       ----------------------------------------------
       CPU/step:     0.251 s, Total CPU:      3.45 hr
       Time step:  0.03501 s, Total time:   554.90 s
       Max CFL number:  0.33E+00 at ( 12, 12, 73)
       Max divergence:  0.62E-02 at ( 11, 11, 65)
       Min divergence: -0.18E-02 at ( 11, 10, 54)
       No. of Lagrangian Particles:           100
 
       Time Step   38500   January 18, 2018  19:54:51
       Pressure Iterations:      1
       Maximum Velocity Error:  0.00E+00 on Mesh   1 at (   0   0   0)
       ----------------------------------------------
       CPU/step:     0.234 s, Total CPU:      3.45 hr
       Time step:  0.03501 s, Total time:   558.40 s
       Max CFL number:  0.33E+00 at ( 13, 12, 92)
       Max divergence:  0.62E-02 at ( 11, 11, 54)
       Min divergence: -0.32E-02 at ( 10, 11, 56)
       No. of Lagrangian Particles:           100
 
       Time Step   38600   January 18, 2018  19:55:14
       Pressure Iterations:      1
       Maximum Velocity Error:  0.00E+00 on Mesh   1 at (   0   0   0)
       ----------------------------------------------
       CPU/step:     0.230 s, Total CPU:      3.46 hr
       Time step:  0.03501 s, Total time:   561.90 s
       Max CFL number:  0.31E+00 at ( 12, 14, 86)
       Max divergence:  0.65E-02 at ( 11, 11, 64)
       Min divergence: -0.21E-02 at ( 10,  9, 53)
       No. of Lagrangian Particles:           100
 
       Time Step   38700   January 18, 2018  19:55:37
       Pressure Iterations:      1
       Maximum Velocity Error:  0.00E+00 on Mesh   1 at (   0   0   0)
       ----------------------------------------------
       CPU/step:     0.227 s, Total CPU:      3.46 hr
       Time step:  0.03501 s, Total time:   565.40 s
       Max CFL number:  0.33E+00 at ( 12, 11, 76)
       Max divergence:  0.64E-02 at ( 11, 11, 60)
       Min divergence: -0.21E-02 at ( 11, 12, 50)
       No. of Lagrangian Particles:           100
 
       Time Step   38800   January 18, 2018  19:56:00
       Pressure Iterations:      1
       Maximum Velocity Error:  0.00E+00 on Mesh   1 at (   0   0   0)
       ----------------------------------------------
       CPU/step:     0.232 s, Total CPU:      3.47 hr
       Time step:  0.03501 s, Total time:   568.91 s
       Max CFL number:  0.33E+00 at ( 11, 10, 98)
       Max divergence:  0.63E-02 at ( 11, 11, 62)
       Min divergence: -0.21E-02 at ( 11, 10, 57)
       No. of Lagrangian Particles:           100
 
       Time Step   38900   January 18, 2018  19:56:24
       Pressure Iterations:      1
       Maximum Velocity Error:  0.00E+00 on Mesh   1 at (   0   0   0)
       ----------------------------------------------
       CPU/step:     0.240 s, Total CPU:      3.48 hr
       Time step:  0.03501 s, Total time:   572.41 s
       Max CFL number:  0.30E+00 at ( 12, 10, 69)
       Max divergence:  0.59E-02 at ( 11, 11, 75)
       Min divergence: -0.16E-02 at ( 12, 11, 35)
       No. of Lagrangian Particles:           100
 
       Time Step   39000   January 18, 2018  19:56:48
       Pressure Iterations:      1
       Maximum Velocity Error:  0.00E+00 on Mesh   1 at (   0   0   0)
       ----------------------------------------------
       CPU/step:     0.230 s, Total CPU:      3.48 hr
       Time step:  0.03501 s, Total time:   575.91 s
       Max CFL number:  0.31E+00 at ( 10,  9, 64)
       Max divergence:  0.56E-02 at ( 11, 11, 69)
       Min divergence: -0.17E-02 at ( 11, 12, 57)
       No. of Lagrangian Particles:           100
 
       Time Step   39100   January 18, 2018  19:57:12
       Pressure Iterations:      1
       Maximum Velocity Error:  0.00E+00 on Mesh   1 at (   0   0   0)
       ----------------------------------------------
       CPU/step:     0.241 s, Total CPU:      3.49 hr
       Time step:  0.03501 s, Total time:   579.41 s
       Max CFL number:  0.32E+00 at ( 12, 10, 78)
       Max divergence:  0.61E-02 at ( 11, 11, 52)
       Min divergence: -0.18E-02 at ( 12, 11, 81)
       No. of Lagrangian Particles:           100
 
       Time Step   39200   January 18, 2018  19:57:35
       Pressure Iterations:      1
       Maximum Velocity Error:  0.00E+00 on Mesh   1 at (   0   0   0)
       ----------------------------------------------
       CPU/step:     0.234 s, Total CPU:      3.50 hr
       Time step:  0.03501 s, Total time:   582.91 s
       Max CFL number:  0.31E+00 at ( 13, 12, 91)
       Max divergence:  0.56E-02 at ( 11, 11, 58)
       Min divergence: -0.20E-02 at ( 11, 10, 55)
       No. of Lagrangian Particles:           100
 
       Time Step   39300   January 18, 2018  19:57:59
       Pressure Iterations:      1
       Maximum Velocity Error:  0.00E+00 on Mesh   1 at (   0   0   0)
       ----------------------------------------------
       CPU/step:     0.232 s, Total CPU:      3.50 hr
       Time step:  0.03501 s, Total time:   586.41 s
       Max CFL number:  0.32E+00 at ( 10, 10, 67)
       Max divergence:  0.56E-02 at ( 11, 11, 72)
       Min divergence: -0.17E-02 at ( 11, 10, 46)
       No. of Lagrangian Particles:           100
 
       Time Step   39400   January 18, 2018  19:58:22
       Pressure Iterations:      1
       Maximum Velocity Error:  0.00E+00 on Mesh   1 at (   0   0   0)
       ----------------------------------------------
       CPU/step:     0.227 s, Total CPU:      3.51 hr
       Time step:  0.03501 s, Total time:   589.91 s
       Max CFL number:  0.29E+00 at (  9,  9, 82)
       Max divergence:  0.55E-02 at ( 11, 11, 77)
       Min divergence: -0.20E-02 at ( 10, 11, 64)
       No. of Lagrangian Particles:           100
 
       Time Step   39500   January 18, 2018  19:58:46
       Pressure Iterations:      1
       Maximum Velocity Error:  0.00E+00 on Mesh   1 at (   0   0   0)
       ----------------------------------------------
       CPU/step:     0.238 s, Total CPU:      3.52 hr
       Time step:  0.03501 s, Total time:   593.41 s
       Max CFL number:  0.31E+00 at ( 10, 12, 88)
       Max divergence:  0.58E-02 at ( 11, 11, 71)
       Min divergence: -0.22E-02 at ( 10, 11, 56)
       No. of Lagrangian Particles:           100
 
       Time Step   39600   January 18, 2018  19:59:09
       Pressure Iterations:      1
       Maximum Velocity Error:  0.00E+00 on Mesh   1 at (   0   0   0)
       ----------------------------------------------
       CPU/step:     0.236 s, Total CPU:      3.52 hr
       Time step:  0.03501 s, Total time:   596.91 s
       Max CFL number:  0.35E+00 at ( 11, 13, 89)
       Max divergence:  0.50E-02 at ( 11, 11, 60)
       Min divergence: -0.21E-02 at ( 12, 11, 51)
       No. of Lagrangian Particles:           100
 
       Time Step   39689   January 18, 2018  19:59:30
       Pressure Iterations:      1
       Maximum Velocity Error:  0.00E+00 on Mesh   1 at (   0   0   0)
       ----------------------------------------------
       CPU/step:     0.232 s, Total CPU:      3.53 hr
       Time step:  0.03501 s, Total time:   600.03 s
       Max CFL number:  0.32E+00 at ( 11, 12,100)
       Max divergence:  0.50E-02 at ( 11, 11, 60)
       Min divergence: -0.21E-02 at ( 12, 11, 51)
       No. of Lagrangian Particles:           100
 


 DEVICE Activation Times



 CPU Time Usage, Mesh   1

                 CPU (s)        %  
       ----------------------------
       MAIN     12776.23     100.00
       DIVG      3993.30      31.26
       MASS      1274.73       9.98
       VELO      2402.53      18.80
       PRES       462.61       3.62
       WALL      1036.36       8.11
       DUMP       285.83       2.24
       PART       188.97       1.48
       RADI      2345.73      18.36
       FIRE       713.28       5.58
       COMM         0.42       0.00
       SubTot   12703.77      99.43


 Time Stepping Wall Clock Time (s):    12886.624
 Total Elapsed Wall Clock Time (s):    12889.858

STOP: FDS completed successfully
